
  -MTS-   10172316422D 0   0.00000     0.00000     0

 30 33  0  0  1  0  0  0  0  0999 V2000
   -5.7060    2.6540    0.0000 C   0  0  0  0  0  0  0  0  0  0  0  0
   -5.7070    1.9140    0.0000 C   0  0  0  0  0  0  0  0  0  0  0  0
   -5.0710    1.5470    0.0000 C   0  0  0  0  0  0  0  0  0  0  0  0
   -5.0730    3.0210    0.0000 C   0  0  0  0  0  0  0  0  0  0  0  0
   -4.4370    2.6580    0.0000 C   0  0  0  0  0  0  0  0  0  0  0  0
   -4.4330    1.9120    0.0000 C   0  0  0  0  0  0  0  0  0  0  0  0
   -3.7890    1.5470    0.0000 C   0  0  1  0  0  0  0  0  0  0  0  0
   -3.1520    1.9180    0.0000 N   0  0  0  0  0  0  0  0  0  0  0  0
   -3.1550    2.6600    0.0000 C   0  0  0  0  0  0  0  0  0  0  0  0
   -3.8000    3.0300    0.0000 C   0  0  0  0  0  0  0  0  0  0  0  0
   -3.7910    0.8090    0.0000 C   0  0  0  0  0  0  0  0  0  0  0  0
   -4.4240    0.4370    0.0000 N   0  0  0  0  0  0  0  0  0  0  0  0
   -3.1530    0.4410    0.0000 O   0  0  0  0  0  0  0  0  0  0  0  0
   -2.5170    1.5540    0.0000 S   0  0  0  0  0  0  0  0  0  0  0  0
   -1.8870    1.9250    0.0000 C   0  0  0  0  0  0  0  0  0  0  0  0
   -3.0420    1.0330    0.0000 O   0  0  0  0  0  0  0  0  0  0  0  0
   -2.0000    1.0330    0.0000 O   0  0  0  0  0  0  0  0  0  0  0  0
   -1.2460    1.5590    0.0000 C   0  0  0  0  0  0  0  0  0  0  0  0
   -0.6130    1.9290    0.0000 N   0  0  0  0  0  0  0  0  0  0  0  0
   -0.6170    2.6640    0.0000 C   0  0  0  0  0  0  0  0  0  0  0  0
   -1.2600    3.0310    0.0000 C   0  0  0  0  0  0  0  0  0  0  0  0
   -1.8900    2.6580    0.0000 C   0  0  0  0  0  0  0  0  0  0  0  0
    0.0150    3.0350    0.0000 O   0  0  0  0  0  0  0  0  0  0  0  0
    0.6460    2.6710    0.0000 C   0  0  0  0  0  0  0  0  0  0  0  0
    0.6420    1.9370    0.0000 C   0  0  0  0  0  0  0  0  0  0  0  0
    1.2760    1.5730    0.0000 C   0  0  0  0  0  0  0  0  0  0  0  0
    1.9080    1.9360    0.0000 C   0  0  0  0  0  0  0  0  0  0  0  0
    1.9060    2.6730    0.0000 C   0  0  0  0  0  0  0  0  0  0  0  0
    1.2760    3.0340    0.0000 C   0  0  0  0  0  0  0  0  0  0  0  0
   -4.4180   -0.2970    0.0000 O   0  0  0  0  0  0  0  0  0  0  0  0
  1  2  2  0  0  0  0
 14 15  1  0  0  0  0
  5  4  2  0  0  0  0
 14 16  2  0  0  0  0
  4  1  1  0  0  0  0
 14 17  2  0  0  0  0
  5 10  1  0  0  0  0
 15 18  2  0  0  0  0
  6  7  1  0  0  0  0
 18 19  1  0  0  0  0
  7  8  1  0  0  0  0
 19 20  2  0  0  0  0
  8  9  1  0  0  0  0
 20 21  1  0  0  0  0
  9 10  1  0  0  0  0
 21 22  2  0  0  0  0
 22 15  1  0  0  0  0
  5  6  1  0  0  0  0
 20 23  1  0  0  0  0
  7 11  1  1  0  0  0
 23 24  1  0  0  0  0
 24 25  2  0  0  0  0
  2  3  1  0  0  0  0
 25 26  1  0  0  0  0
 11 12  1  0  0  0  0
 26 27  2  0  0  0  0
 11 13  2  0  0  0  0
 27 28  1  0  0  0  0
  3  6  2  0  0  0  0
 28 29  2  0  0  0  0
 29 24  1  0  0  0  0
 12 30  1  0  0  0  0
  8 14  1  0  0  0  0
M  END
>  <ID_NEW>
CPDMM2001

>  <pIC50>
8.886056647693163

$$$$

  -MTS-   10172316422D 0   0.00000     0.00000     0

 31 34  0  0  1  0  0  0  0  0999 V2000
   -4.3250    0.7970    0.0000 C   0  0  0  0  0  0  0  0  0  0  0  0
   -5.1110    0.5490    0.0000 N   0  0  0  0  0  0  0  0  0  0  0  0
   -3.7160    0.2400    0.0000 O   0  0  0  0  0  0  0  0  0  0  0  0
   -5.2890   -0.2570    0.0000 O   0  0  0  0  0  0  0  0  0  0  0  0
   -2.8170    1.1510    0.0000 S   0  0  0  0  0  0  0  0  0  0  0  0
   -2.0250    1.3710    0.0000 C   0  0  0  0  0  0  0  0  0  0  0  0
   -3.6210    0.9420    0.0000 O   0  0  0  0  0  0  0  0  0  0  0  0
   -2.8250    0.3290    0.0000 O   0  0  0  0  0  0  0  0  0  0  0  0
   -1.4400    0.7920    0.0000 C   0  0  0  0  0  0  0  0  0  0  0  0
   -0.6490    1.0100    0.0000 C   0  0  0  0  0  0  0  0  0  0  0  0
   -0.4420    1.8070    0.0000 C   0  0  0  0  0  0  0  0  0  0  0  0
   -1.0330    2.3840    0.0000 C   0  0  0  0  0  0  0  0  0  0  0  0
   -1.8220    2.1620    0.0000 C   0  0  0  0  0  0  0  0  0  0  0  0
   -4.1470    1.5990    0.0000 C   0  0  2  0  0  0  0  0  0  0  0  0
   -3.3370    1.7920    0.0000 N   0  0  0  0  0  0  0  0  0  0  0  0
   -3.1010    2.5860    0.0000 C   0  0  0  0  0  0  0  0  0  0  0  0
   -3.6710    3.1910    0.0000 C   0  0  0  0  0  0  0  0  0  0  0  0
   -4.7210    2.1990    0.0000 C   0  0  2  0  0  0  0  0  0  0  0  0
   -4.4840    2.9960    0.0000 C   0  0  1  0  0  0  0  0  0  0  0  0
   -5.1690    3.4680    0.0000 O   0  0  0  0  0  0  0  0  0  0  0  0
   -5.8300    2.9620    0.0000 C   0  0  0  0  0  0  0  0  0  0  0  0
   -5.5530    2.1780    0.0000 C   0  0  0  0  0  0  0  0  0  0  0  0
    0.3530    2.0280    0.0000 C   0  0  0  0  0  0  0  0  0  0  0  0
    0.9410    1.4490    0.0000 C   0  0  0  0  0  0  0  0  0  0  0  0
    1.7350    1.6700    0.0000 C   0  0  0  0  0  0  0  0  0  0  0  0
    1.9410    2.4700    0.0000 C   0  0  0  0  0  0  0  0  0  0  0  0
    1.3470    3.0480    0.0000 C   0  0  0  0  0  0  0  0  0  0  0  0
    0.5560    2.8250    0.0000 C   0  0  0  0  0  0  0  0  0  0  0  0
    2.7360    2.6920    0.0000 F   0  0  0  0  0  0  0  0  0  0  0  0
   -4.3010    3.9800    0.0000 H   0  0  0  0  0  0  0  0  0  0  0  0
   -5.1020    1.2740    0.0000 H   0  0  0  0  0  0  0  0  0  0  0  0
  2  4  1  0  0  0  0
 15  5  1  0  0  0  0
  5  6  1  0  0  0  0
  5  7  2  0  0  0  0
  5  8  2  0  0  0  0
  6  9  2  0  0  0  0
  9 10  1  0  0  0  0
 10 11  2  0  0  0  0
 11 12  1  0  0  0  0
 12 13  2  0  0  0  0
 13  6  1  0  0  0  0
 14 15  1  0  0  0  0
 14 18  1  0  0  0  0
 15 16  1  0  0  0  0
 16 17  1  0  0  0  0
 17 19  1  0  0  0  0
 18 19  1  0  0  0  0
 19 20  1  0  0  0  0
 20 21  1  0  0  0  0
 21 22  1  0  0  0  0
 22 18  1  0  0  0  0
 14  1  1  1  0  0  0
  1  2  1  0  0  0  0
  1  3  2  0  0  0  0
 11 23  1  0  0  0  0
 23 24  2  0  0  0  0
 24 25  1  0  0  0  0
 25 26  2  0  0  0  0
 26 27  1  0  0  0  0
 27 28  2  0  0  0  0
 28 23  1  0  0  0  0
 26 29  1  0  0  0  0
 19 30  1  6  0  0  0
 18 31  1  6  0  0  0
M  END
>  <ID_NEW>
CPDMM2002

>  <pIC50>
8.881404634776237

$$$$

  -MTS-   10172316422D 0   0.00000     0.00000     0

 30 33  0  0  1  0  0  0  0  0999 V2000
   -4.3250    0.8300    0.0000 C   0  0  0  0  0  0  0  0  0  0  0  0
   -5.1110    0.5820    0.0000 N   0  0  0  0  0  0  0  0  0  0  0  0
   -3.7160    0.2730    0.0000 O   0  0  0  0  0  0  0  0  0  0  0  0
   -5.2890   -0.2240    0.0000 O   0  0  0  0  0  0  0  0  0  0  0  0
   -2.8170    1.1850    0.0000 S   0  0  0  0  0  0  0  0  0  0  0  0
   -2.0250    1.4040    0.0000 C   0  0  0  0  0  0  0  0  0  0  0  0
   -3.6210    0.9750    0.0000 O   0  0  0  0  0  0  0  0  0  0  0  0
   -2.8250    0.3620    0.0000 O   0  0  0  0  0  0  0  0  0  0  0  0
   -1.4400    0.8250    0.0000 C   0  0  0  0  0  0  0  0  0  0  0  0
   -0.6490    1.0440    0.0000 C   0  0  0  0  0  0  0  0  0  0  0  0
   -0.4420    1.8400    0.0000 C   0  0  0  0  0  0  0  0  0  0  0  0
   -1.0330    2.4170    0.0000 C   0  0  0  0  0  0  0  0  0  0  0  0
   -1.8220    2.1960    0.0000 C   0  0  0  0  0  0  0  0  0  0  0  0
    0.3530    2.0610    0.0000 O   0  0  0  0  0  0  0  0  0  0  0  0
    0.9420    1.4840    0.0000 C   0  0  0  0  0  0  0  0  0  0  0  0
    0.7340    0.6880    0.0000 C   0  0  0  0  0  0  0  0  0  0  0  0
    1.3220    0.1110    0.0000 C   0  0  0  0  0  0  0  0  0  0  0  0
    2.1180    0.3320    0.0000 C   0  0  0  0  0  0  0  0  0  0  0  0
    2.3220    1.1350    0.0000 C   0  0  0  0  0  0  0  0  0  0  0  0
    1.7320    1.7090    0.0000 C   0  0  0  0  0  0  0  0  0  0  0  0
    2.7070   -0.2450    0.0000 F   0  0  0  0  0  0  0  0  0  0  0  0
   -4.1470    1.6320    0.0000 C   0  0  2  0  0  0  0  0  0  0  0  0
   -3.3370    1.8250    0.0000 N   0  0  0  0  0  0  0  0  0  0  0  0
   -3.1010    2.6190    0.0000 C   0  0  0  0  0  0  0  0  0  0  0  0
   -3.6710    3.2250    0.0000 C   0  0  0  0  0  0  0  0  0  0  0  0
   -4.7210    2.2320    0.0000 C   0  0  0  0  0  0  0  0  0  0  0  0
   -4.4840    3.0300    0.0000 C   0  0  0  0  0  0  0  0  0  0  0  0
   -5.1690    3.5020    0.0000 O   0  0  0  0  0  0  0  0  0  0  0  0
   -5.8300    2.9960    0.0000 C   0  0  0  0  0  0  0  0  0  0  0  0
   -5.5530    2.2110    0.0000 C   0  0  0  0  0  0  0  0  0  0  0  0
  2  4  1  0  0  0  0
 23  5  1  0  0  0  0
  5  6  1  0  0  0  0
  5  7  2  0  0  0  0
  5  8  2  0  0  0  0
  6  9  2  0  0  0  0
  9 10  1  0  0  0  0
 10 11  2  0  0  0  0
 11 12  1  0  0  0  0
 12 13  2  0  0  0  0
 13  6  1  0  0  0  0
 11 14  1  0  0  0  0
 14 15  1  0  0  0  0
 15 16  2  0  0  0  0
 16 17  1  0  0  0  0
 17 18  2  0  0  0  0
 18 19  1  0  0  0  0
 19 20  2  0  0  0  0
 20 15  1  0  0  0  0
 18 21  1  0  0  0  0
 22 23  1  0  0  0  0
 22 26  1  0  0  0  0
 23 24  1  0  0  0  0
 24 25  1  0  0  0  0
 25 27  1  0  0  0  0
 26 27  2  0  0  0  0
 27 28  1  0  0  0  0
 28 29  1  0  0  0  0
 29 30  2  0  0  0  0
 30 26  1  0  0  0  0
 22  1  1  1  0  0  0
  1  2  1  0  0  0  0
  1  3  2  0  0  0  0
M  END
>  <ID_NEW>
CPDMM2003

>  <pIC50>
8.877456475931245

$$$$

  -MTS-   10172316422D 0   0.00000     0.00000     0

 31 34  0  0  1  0  0  0  0  0999 V2000
   -3.7210    1.4880    0.0000 C   0  0  2  0  0  0  0  0  0  0  0  0
   -3.0090    1.8960    0.0000 N   0  0  0  0  0  0  0  0  0  0  0  0
   -3.0090    2.7210    0.0000 C   0  0  0  0  0  0  0  0  0  0  0  0
   -3.7210    3.1380    0.0000 C   0  0  0  0  0  0  0  0  0  0  0  0
   -4.4330    1.8960    0.0000 C   0  0  2  0  0  0  0  0  0  0  0  0
   -4.4380    2.7210    0.0000 C   0  0  1  0  0  0  0  0  0  0  0  0
   -5.2240    2.9710    0.0000 O   0  0  0  0  0  0  0  0  0  0  0  0
   -5.7050    2.3010    0.0000 C   0  0  0  0  0  0  0  0  0  0  0  0
   -5.2160    1.6370    0.0000 C   0  0  0  0  0  0  0  0  0  0  0  0
   -3.7210    0.6630    0.0000 C   0  0  0  0  0  0  0  0  0  0  0  0
   -4.4340    0.2490    0.0000 N   0  0  0  0  0  0  0  0  0  0  0  0
   -3.0050    0.2490    0.0000 O   0  0  0  0  0  0  0  0  0  0  0  0
   -4.4320   -0.5760    0.0000 O   0  0  0  0  0  0  0  0  0  0  0  0
   -2.2950    1.4820    0.0000 S   0  0  0  0  0  0  0  0  0  0  0  0
   -2.8830    0.9000    0.0000 O   0  0  0  0  0  0  0  0  0  0  0  0
   -1.8870    0.7710    0.0000 O   0  0  0  0  0  0  0  0  0  0  0  0
   -1.5000    1.7000    0.0000 C   0  0  0  0  0  0  0  0  0  0  0  0
   -0.9150    1.1170    0.0000 C   0  0  0  0  0  0  0  0  0  0  0  0
   -0.1200    1.3340    0.0000 C   0  0  0  0  0  0  0  0  0  0  0  0
    0.0900    2.1330    0.0000 C   0  0  0  0  0  0  0  0  0  0  0  0
   -0.5010    2.7140    0.0000 C   0  0  0  0  0  0  0  0  0  0  0  0
   -1.2940    2.4940    0.0000 C   0  0  0  0  0  0  0  0  0  0  0  0
    0.8850    2.3520    0.0000 C   0  0  0  0  0  0  0  0  0  0  0  0
    1.4680    1.7700    0.0000 C   0  0  0  0  0  0  0  0  0  0  0  0
    2.2630    1.9880    0.0000 C   0  0  0  0  0  0  0  0  0  0  0  0
    2.4720    2.7870    0.0000 C   0  0  0  0  0  0  0  0  0  0  0  0
    1.8800    3.3680    0.0000 C   0  0  0  0  0  0  0  0  0  0  0  0
    1.0870    3.1470    0.0000 C   0  0  0  0  0  0  0  0  0  0  0  0
    3.2670    3.0070    0.0000 Cl  0  0  0  0  0  0  0  0  0  0  0  0
   -4.5470    3.7150    0.0000 H   0  0  0  0  0  0  0  0  0  0  0  0
   -4.5340    0.9010    0.0000 H   0  0  0  0  0  0  0  0  0  0  0  0
 10 12  2  0  0  0  0
 11 13  1  0  0  0  0
  2 14  1  0  0  0  0
 14 15  2  0  0  0  0
 14 16  2  0  0  0  0
 14 17  1  0  0  0  0
 17 18  2  0  0  0  0
 18 19  1  0  0  0  0
 19 20  2  0  0  0  0
 20 21  1  0  0  0  0
 21 22  2  0  0  0  0
 22 17  1  0  0  0  0
 20 23  1  0  0  0  0
 23 24  2  0  0  0  0
 24 25  1  0  0  0  0
 25 26  2  0  0  0  0
 26 27  1  0  0  0  0
 27 28  2  0  0  0  0
 28 23  1  0  0  0  0
 26 29  1  0  0  0  0
  6  4  1  0  0  0  0
  5  1  1  0  0  0  0
  1  2  1  0  0  0  0
  2  3  1  0  0  0  0
  3  4  1  0  0  0  0
  5  6  1  0  0  0  0
  6  7  1  0  0  0  0
  7  8  1  0  0  0  0
  8  9  1  0  0  0  0
  9  5  1  0  0  0  0
  1 10  1  1  0  0  0
 10 11  1  0  0  0  0
  6 30  1  6  0  0  0
  5 31  1  6  0  0  0
M  END
>  <ID_NEW>
CPDMM2004

>  <pIC50>
8.846795099915713

$$$$

  -MTS-   10172316422D 0   0.00000     0.00000     0

 32 35  0  0  1  0  0  0  0  0999 V2000
   -4.3250    0.8600    0.0000 C   0  0  0  0  0  0  0  0  0  0  0  0
   -5.1110    0.6110    0.0000 N   0  0  0  0  0  0  0  0  0  0  0  0
   -3.7160    0.3030    0.0000 O   0  0  0  0  0  0  0  0  0  0  0  0
   -5.2890   -0.1940    0.0000 O   0  0  0  0  0  0  0  0  0  0  0  0
   -2.8170    1.2140    0.0000 S   0  0  0  0  0  0  0  0  0  0  0  0
   -2.0250    1.4330    0.0000 C   0  0  0  0  0  0  0  0  0  0  0  0
   -3.6210    1.0040    0.0000 O   0  0  0  0  0  0  0  0  0  0  0  0
   -2.8250    0.3920    0.0000 O   0  0  0  0  0  0  0  0  0  0  0  0
   -1.4400    0.8540    0.0000 C   0  0  0  0  0  0  0  0  0  0  0  0
   -0.6490    1.0730    0.0000 C   0  0  0  0  0  0  0  0  0  0  0  0
   -0.4420    1.8690    0.0000 C   0  0  0  0  0  0  0  0  0  0  0  0
   -1.0330    2.4470    0.0000 C   0  0  0  0  0  0  0  0  0  0  0  0
   -1.8220    2.2250    0.0000 C   0  0  0  0  0  0  0  0  0  0  0  0
    0.3530    2.0900    0.0000 O   0  0  0  0  0  0  0  0  0  0  0  0
    0.9420    1.5130    0.0000 C   0  0  0  0  0  0  0  0  0  0  0  0
    0.7340    0.7170    0.0000 C   0  0  0  0  0  0  0  0  0  0  0  0
    1.3220    0.1400    0.0000 C   0  0  0  0  0  0  0  0  0  0  0  0
    2.1180    0.3610    0.0000 C   0  0  0  0  0  0  0  0  0  0  0  0
    2.3220    1.1640    0.0000 C   0  0  0  0  0  0  0  0  0  0  0  0
    1.7320    1.7380    0.0000 C   0  0  0  0  0  0  0  0  0  0  0  0
    2.7070   -0.2160    0.0000 Cl  0  0  0  0  0  0  0  0  0  0  0  0
   -4.1470    1.6610    0.0000 C   0  0  1  0  0  0  0  0  0  0  0  0
   -3.3370    1.8540    0.0000 N   0  0  0  0  0  0  0  0  0  0  0  0
   -3.1010    2.6480    0.0000 C   0  0  0  0  0  0  0  0  0  0  0  0
   -3.6710    3.2540    0.0000 C   0  0  0  0  0  0  0  0  0  0  0  0
   -4.7210    2.2610    0.0000 C   0  0  1  0  0  0  0  0  0  0  0  0
   -4.4840    3.0590    0.0000 C   0  0  2  0  0  0  0  0  0  0  0  0
   -5.1690    3.5310    0.0000 O   0  0  0  0  0  0  0  0  0  0  0  0
   -5.8300    3.0250    0.0000 C   0  0  0  0  0  0  0  0  0  0  0  0
   -5.5530    2.2400    0.0000 C   0  0  0  0  0  0  0  0  0  0  0  0
   -4.3010    4.0420    0.0000 H   0  0  0  0  0  0  0  0  0  0  0  0
   -5.1020    1.3370    0.0000 H   0  0  0  0  0  0  0  0  0  0  0  0
 22  1  1  6  0  0  0
  1  2  1  0  0  0  0
  1  3  2  0  0  0  0
  2  4  1  0  0  0  0
 23  5  1  0  0  0  0
  5  6  1  0  0  0  0
  5  7  2  0  0  0  0
  5  8  2  0  0  0  0
  6  9  2  0  0  0  0
  9 10  1  0  0  0  0
 10 11  2  0  0  0  0
 11 12  1  0  0  0  0
 12 13  2  0  0  0  0
 13  6  1  0  0  0  0
 11 14  1  0  0  0  0
 14 15  1  0  0  0  0
 15 16  2  0  0  0  0
 16 17  1  0  0  0  0
 17 18  2  0  0  0  0
 18 19  1  0  0  0  0
 19 20  2  0  0  0  0
 20 15  1  0  0  0  0
 18 21  1  0  0  0  0
 22 23  1  0  0  0  0
 22 26  1  0  0  0  0
 23 24  1  0  0  0  0
 24 25  1  0  0  0  0
 25 27  1  0  0  0  0
 26 27  1  0  0  0  0
 27 28  1  0  0  0  0
 28 29  1  0  0  0  0
 29 30  1  0  0  0  0
 30 26  1  0  0  0  0
 27 31  1  1  0  0  0
 26 32  1  1  0  0  0
M  END
>  <ID_NEW>
CPDMM2005

>  <pIC50>
8.840432806766378

$$$$

  -MTS-   10172316422D 0   0.00000     0.00000     0

 35 38  0  0  1  0  0  0  0  0999 V2000
   -5.1580    0.7090    0.0000 C   0  0  0  0  0  0  0  0  0  0  0  0
   -5.1500    2.2320    0.0000 O   0  0  0  0  0  0  0  0  0  0  0  0
   -5.7060    1.4720    0.0000 C   0  0  0  0  0  0  0  0  0  0  0  0
   -4.2540    1.9340    0.0000 C   0  0  2  0  0  0  0  0  0  0  0  0
   -4.2630    0.9960    0.0000 C   0  0  1  0  0  0  0  0  0  0  0  0
   -3.4460    0.5250    0.0000 C   0  0  1  0  0  0  0  0  0  0  0  0
   -2.6350    0.9920    0.0000 N   0  0  0  0  0  0  0  0  0  0  0  0
   -2.6310    1.9300    0.0000 C   0  0  0  0  0  0  0  0  0  0  0  0
   -3.4430    2.4000    0.0000 C   0  0  0  0  0  0  0  0  0  0  0  0
   -3.4540   -0.4090    0.0000 C   0  0  0  0  0  0  0  0  0  0  0  0
   -2.6380   -0.8790    0.0000 N   0  0  0  0  0  0  0  0  0  0  0  0
   -4.2690   -0.8750    0.0000 O   0  0  0  0  0  0  0  0  0  0  0  0
   -0.2520    0.9400    0.0000 C   0  0  0  0  0  0  0  0  0  0  0  0
   -1.1620    1.1810    0.0000 C   0  0  0  0  0  0  0  0  0  0  0  0
   -1.4040    2.0890    0.0000 C   0  0  0  0  0  0  0  0  0  0  0  0
   -0.7340    2.7520    0.0000 C   0  0  0  0  0  0  0  0  0  0  0  0
    0.1740    2.5080    0.0000 C   0  0  0  0  0  0  0  0  0  0  0  0
    0.4160    1.6000    0.0000 C   0  0  0  0  0  0  0  0  0  0  0  0
   -1.8230    0.5210    0.0000 S   0  0  0  0  0  0  0  0  0  0  0  0
   -2.3630   -0.2430    0.0000 O   0  0  0  0  0  0  0  0  0  0  0  0
   -1.1110   -0.0810    0.0000 O   0  0  0  0  0  0  0  0  0  0  0  0
    0.8380    3.1630    0.0000 O   0  0  0  0  0  0  0  0  0  0  0  0
    1.7440    2.9180    0.0000 C   0  0  0  0  0  0  0  0  0  0  0  0
    2.4120    3.5820    0.0000 C   0  0  0  0  0  0  0  0  0  0  0  0
    3.3140    3.3370    0.0000 C   0  0  0  0  0  0  0  0  0  0  0  0
    3.5560    2.4250    0.0000 C   0  0  0  0  0  0  0  0  0  0  0  0
    2.8880    1.7700    0.0000 C   0  0  0  0  0  0  0  0  0  0  0  0
    1.9860    2.0140    0.0000 C   0  0  0  0  0  0  0  0  0  0  0  0
    4.4620    2.1800    0.0000 S   0  0  0  0  0  0  0  0  0  0  0  0
    5.3630    1.9420    0.0000 O   0  0  0  0  0  0  0  0  0  0  0  0
    4.6960    3.0870    0.0000 O   0  0  0  0  0  0  0  0  0  0  0  0
    4.2130    1.2790    0.0000 C   0  0  0  0  0  0  0  0  0  0  0  0
   -2.6370   -1.8210    0.0000 O   0  0  0  0  0  0  0  0  0  0  0  0
   -4.3690    0.0020    0.0000 H   0  0  0  0  0  0  0  0  0  0  0  0
   -4.3540    2.9290    0.0000 H   0  0  0  0  0  0  0  0  0  0  0  0
  6 10  1  1  0  0  0
 10 11  1  0  0  0  0
 10 12  2  0  0  0  0
  1  5  1  0  0  0  0
  4  2  1  0  0  0  0
  2  3  1  0  0  0  0
  3  1  1  0  0  0  0
  4  9  1  0  0  0  0
  5  6  1  0  0  0  0
  6  7  1  0  0  0  0
  7  8  1  0  0  0  0
  8  9  1  0  0  0  0
  4  5  1  0  0  0  0
 19 21  2  0  0  0  0
 16 17  1  0  0  0  0
 17 22  1  0  0  0  0
 14 15  1  0  0  0  0
 22 23  1  0  0  0  0
 17 18  2  0  0  0  0
 23 24  2  0  0  0  0
 18 13  1  0  0  0  0
 24 25  1  0  0  0  0
 13 14  2  0  0  0  0
 25 26  2  0  0  0  0
 14 19  1  0  0  0  0
 26 27  1  0  0  0  0
 15 16  2  0  0  0  0
 27 28  2  0  0  0  0
 28 23  1  0  0  0  0
 26 29  1  0  0  0  0
 19 20  2  0  0  0  0
  7 19  1  0  0  0  0
 29 30  2  0  0  0  0
 29 31  2  0  0  0  0
 29 32  1  0  0  0  0
 11 33  1  0  0  0  0
  5 34  1  6  0  0  0
  4 35  1  6  0  0  0
M  END
>  <ID_NEW>
CPDMM2006

>  <pIC50>
8.753747687700676

$$$$

  -MTS-   10172316422D 0   0.00000     0.00000     0

 33 36  0  0  1  0  0  0  0  0999 V2000
   -5.1580    0.7090    0.0000 C   0  0  0  0  0  0  0  0  0  0  0  0
   -5.1500    2.2320    0.0000 O   0  0  0  0  0  0  0  0  0  0  0  0
   -5.7060    1.4720    0.0000 C   0  0  0  0  0  0  0  0  0  0  0  0
   -4.2620    1.9340    0.0000 C   0  0  2  0  0  0  0  0  0  0  0  0
   -4.2630    0.9960    0.0000 C   0  0  1  0  0  0  0  0  0  0  0  0
   -3.4540    0.5250    0.0000 C   0  0  1  0  0  0  0  0  0  0  0  0
   -2.6400    0.9920    0.0000 N   0  0  0  0  0  0  0  0  0  0  0  0
   -2.6350    1.9300    0.0000 C   0  0  0  0  0  0  0  0  0  0  0  0
   -3.4480    2.4000    0.0000 C   0  0  0  0  0  0  0  0  0  0  0  0
   -3.4550   -0.4090    0.0000 C   0  0  0  0  0  0  0  0  0  0  0  0
   -2.6460   -0.8790    0.0000 N   0  0  0  0  0  0  0  0  0  0  0  0
   -4.2690   -0.8750    0.0000 O   0  0  0  0  0  0  0  0  0  0  0  0
   -0.2610    0.9400    0.0000 C   0  0  0  0  0  0  0  0  0  0  0  0
   -1.1630    1.1810    0.0000 C   0  0  0  0  0  0  0  0  0  0  0  0
   -1.4050    2.0890    0.0000 C   0  0  0  0  0  0  0  0  0  0  0  0
   -0.7400    2.7520    0.0000 C   0  0  0  0  0  0  0  0  0  0  0  0
    0.1650    2.5080    0.0000 C   0  0  0  0  0  0  0  0  0  0  0  0
    0.4070    1.6000    0.0000 C   0  0  0  0  0  0  0  0  0  0  0  0
   -1.8270    0.5210    0.0000 S   0  0  0  0  0  0  0  0  0  0  0  0
   -2.3700   -0.2430    0.0000 O   0  0  0  0  0  0  0  0  0  0  0  0
   -1.1140   -0.0810    0.0000 O   0  0  0  0  0  0  0  0  0  0  0  0
    0.8290    3.1630    0.0000 O   0  0  0  0  0  0  0  0  0  0  0  0
    1.7350    2.9180    0.0000 C   0  0  0  0  0  0  0  0  0  0  0  0
    2.4040    3.5820    0.0000 C   0  0  0  0  0  0  0  0  0  0  0  0
    3.3050    3.3370    0.0000 C   0  0  0  0  0  0  0  0  0  0  0  0
    3.5470    2.4250    0.0000 C   0  0  0  0  0  0  0  0  0  0  0  0
    2.8790    1.7700    0.0000 C   0  0  0  0  0  0  0  0  0  0  0  0
    1.9770    2.0140    0.0000 C   0  0  0  0  0  0  0  0  0  0  0  0
    4.4530    2.1800    0.0000 C   0  0  0  0  0  0  0  0  0  0  0  0
    5.3550    1.9400    0.0000 N   0  0  0  0  0  0  0  0  0  0  0  0
   -2.6490   -1.8160    0.0000 O   0  0  0  0  0  0  0  0  0  0  0  0
   -4.3710    0.0020    0.0000 H   0  0  0  0  0  0  0  0  0  0  0  0
   -4.3600    2.9290    0.0000 H   0  0  0  0  0  0  0  0  0  0  0  0
  6 10  1  1  0  0  0
 10 11  1  0  0  0  0
 10 12  2  0  0  0  0
  1  5  1  0  0  0  0
  4  2  1  0  0  0  0
  2  3  1  0  0  0  0
  3  1  1  0  0  0  0
  4  9  1  0  0  0  0
  5  6  1  0  0  0  0
  6  7  1  0  0  0  0
  7  8  1  0  0  0  0
  8  9  1  0  0  0  0
  4  5  1  0  0  0  0
 19 21  2  0  0  0  0
 16 17  1  0  0  0  0
 17 22  1  0  0  0  0
 14 15  1  0  0  0  0
 22 23  1  0  0  0  0
 17 18  2  0  0  0  0
 23 24  2  0  0  0  0
 18 13  1  0  0  0  0
 24 25  1  0  0  0  0
 13 14  2  0  0  0  0
 25 26  2  0  0  0  0
 14 19  1  0  0  0  0
 26 27  1  0  0  0  0
 15 16  2  0  0  0  0
 27 28  2  0  0  0  0
 28 23  1  0  0  0  0
 26 29  1  0  0  0  0
 19 20  2  0  0  0  0
 29 30  3  0  0  0  0
  7 19  1  0  0  0  0
 11 31  1  0  0  0  0
  5 32  1  6  0  0  0
  4 33  1  6  0  0  0
M  END
>  <ID_NEW>
CPDMM2007

>  <pIC50>
8.735182176990463

$$$$

  -MTS-   10172316422D 0   0.00000     0.00000     0

 34 37  0  0  1  0  0  0  0  0999 V2000
   -4.3250    0.7970    0.0000 C   0  0  0  0  0  0  0  0  0  0  0  0
   -5.1110    0.5490    0.0000 N   0  0  0  0  0  0  0  0  0  0  0  0
   -3.7160    0.2400    0.0000 O   0  0  0  0  0  0  0  0  0  0  0  0
   -5.2890   -0.2570    0.0000 O   0  0  0  0  0  0  0  0  0  0  0  0
   -2.8170    1.1510    0.0000 S   0  0  0  0  0  0  0  0  0  0  0  0
   -3.6210    0.9420    0.0000 O   0  0  0  0  0  0  0  0  0  0  0  0
   -2.8250    0.3290    0.0000 O   0  0  0  0  0  0  0  0  0  0  0  0
   -4.1470    1.5990    0.0000 C   0  0  2  0  0  0  0  0  0  0  0  0
   -3.3370    1.7920    0.0000 N   0  0  0  0  0  0  0  0  0  0  0  0
   -3.1010    2.5860    0.0000 C   0  0  0  0  0  0  0  0  0  0  0  0
   -3.6710    3.1910    0.0000 C   0  0  0  0  0  0  0  0  0  0  0  0
   -4.7210    2.1990    0.0000 C   0  0  2  0  0  0  0  0  0  0  0  0
   -4.4840    2.9960    0.0000 C   0  0  1  0  0  0  0  0  0  0  0  0
   -5.1690    3.4680    0.0000 O   0  0  0  0  0  0  0  0  0  0  0  0
   -5.8300    2.9620    0.0000 C   0  0  0  0  0  0  0  0  0  0  0  0
   -5.5530    2.1780    0.0000 C   0  0  0  0  0  0  0  0  0  0  0  0
   -2.0260    1.3840    0.0000 C   0  0  0  0  0  0  0  0  0  0  0  0
   -1.4310    0.8150    0.0000 C   0  0  0  0  0  0  0  0  0  0  0  0
   -0.6400    1.0480    0.0000 C   0  0  0  0  0  0  0  0  0  0  0  0
   -0.4460    1.8500    0.0000 C   0  0  0  0  0  0  0  0  0  0  0  0
   -1.0480    2.4200    0.0000 C   0  0  0  0  0  0  0  0  0  0  0  0
   -1.8360    2.1850    0.0000 C   0  0  0  0  0  0  0  0  0  0  0  0
    0.3450    2.0840    0.0000 C   0  0  0  0  0  0  0  0  0  0  0  0
    0.9400    1.5160    0.0000 C   0  0  0  0  0  0  0  0  0  0  0  0
    1.7310    1.7490    0.0000 C   0  0  0  0  0  0  0  0  0  0  0  0
    1.9240    2.5520    0.0000 C   0  0  0  0  0  0  0  0  0  0  0  0
    1.3210    3.1210    0.0000 C   0  0  0  0  0  0  0  0  0  0  0  0
    0.5330    2.8850    0.0000 C   0  0  0  0  0  0  0  0  0  0  0  0
    2.7150    2.7870    0.0000 C   0  0  0  0  0  0  0  0  0  0  0  0
    3.3140    2.2200    0.0000 F   0  0  0  0  0  0  0  0  0  0  0  0
    2.9070    3.5890    0.0000 F   0  0  0  0  0  0  0  0  0  0  0  0
    2.7380    1.9620    0.0000 F   0  0  0  0  0  0  0  0  0  0  0  0
   -4.3010    3.9800    0.0000 H   0  0  0  0  0  0  0  0  0  0  0  0
   -5.1020    1.2740    0.0000 H   0  0  0  0  0  0  0  0  0  0  0  0
 11 13  1  0  0  0  0
 12 13  1  0  0  0  0
 13 14  1  0  0  0  0
 14 15  1  0  0  0  0
 15 16  1  0  0  0  0
 16 12  1  0  0  0  0
  8  1  1  1  0  0  0
  1  2  1  0  0  0  0
  1  3  2  0  0  0  0
  5 17  1  0  0  0  0
 17 18  2  0  0  0  0
 18 19  1  0  0  0  0
 19 20  2  0  0  0  0
 20 21  1  0  0  0  0
 21 22  2  0  0  0  0
 22 17  1  0  0  0  0
 20 23  1  0  0  0  0
 23 24  2  0  0  0  0
 24 25  1  0  0  0  0
 25 26  2  0  0  0  0
 26 27  1  0  0  0  0
 27 28  2  0  0  0  0
 28 23  1  0  0  0  0
 26 29  1  0  0  0  0
 29 30  1  0  0  0  0
 29 31  1  0  0  0  0
 29 32  1  0  0  0  0
  2  4  1  0  0  0  0
  9  5  1  0  0  0  0
  5  6  2  0  0  0  0
  5  7  2  0  0  0  0
  8  9  1  0  0  0  0
  8 12  1  0  0  0  0
  9 10  1  0  0  0  0
 10 11  1  0  0  0  0
 13 33  1  6  0  0  0
 12 34  1  6  0  0  0
M  END
>  <ID_NEW>
CPDMM2008

>  <pIC50>
8.72445831159869

$$$$

  -MTS-   10172316422D 0   0.00000     0.00000     0

 33 36  0  0  1  0  0  0  0  0999 V2000
   -1.3030    0.9140    0.0000 N   0  0  0  0  0  0  0  0  0  0  0  0
   -1.3000    1.6860    0.0000 C   0  0  2  0  0  0  0  0  0  0  0  0
   -1.9830    0.5340    0.0000 C   0  0  0  0  0  0  0  0  0  0  0  0
   -0.6280    0.5310    0.0000 S   0  0  0  0  0  0  0  0  0  0  0  0
   -1.9720    2.0760    0.0000 C   0  0  0  0  0  0  0  0  0  0  0  0
   -0.6280    2.0760    0.0000 C   0  0  0  0  0  0  0  0  0  0  0  0
   -2.6480    0.9210    0.0000 C   0  0  0  0  0  0  0  0  0  0  0  0
    0.0480    0.1380    0.0000 C   0  0  0  0  0  0  0  0  0  0  0  0
   -1.0210   -0.1410    0.0000 O   0  0  0  0  0  0  0  0  0  0  0  0
   -0.2450    1.2000    0.0000 O   0  0  0  0  0  0  0  0  0  0  0  0
   -2.6450    1.6930    0.0000 C   0  0  0  0  0  0  0  0  0  0  0  0
    0.0480    1.6930    0.0000 N   0  0  0  0  0  0  0  0  0  0  0  0
   -0.6280    2.8480    0.0000 O   0  0  0  0  0  0  0  0  0  0  0  0
   -3.3140    0.5340    0.0000 C   0  0  0  0  0  0  0  0  0  0  0  0
    0.0410   -0.6310    0.0000 C   0  0  0  0  0  0  0  0  0  0  0  0
    0.7210    0.5210    0.0000 C   0  0  0  0  0  0  0  0  0  0  0  0
   -3.3170    2.0720    0.0000 C   0  0  0  0  0  0  0  0  0  0  0  0
    0.7140    2.0830    0.0000 O   0  0  0  0  0  0  0  0  0  0  0  0
   -3.9830    0.9240    0.0000 C   0  0  0  0  0  0  0  0  0  0  0  0
    0.7140   -1.0210    0.0000 C   0  0  0  0  0  0  0  0  0  0  0  0
    1.3900    0.1340    0.0000 C   0  0  0  0  0  0  0  0  0  0  0  0
   -3.9830    1.6900    0.0000 C   0  0  0  0  0  0  0  0  0  0  0  0
    1.3860   -0.6380    0.0000 C   0  0  0  0  0  0  0  0  0  0  0  0
    2.0590   -1.0310    0.0000 C   0  0  0  0  0  0  0  0  0  0  0  0
    2.0550   -1.8000    0.0000 C   0  0  0  0  0  0  0  0  0  0  0  0
    2.7240   -0.6520    0.0000 C   0  0  0  0  0  0  0  0  0  0  0  0
    2.7170   -2.1860    0.0000 C   0  0  0  0  0  0  0  0  0  0  0  0
    3.3930   -1.0340    0.0000 C   0  0  0  0  0  0  0  0  0  0  0  0
    3.3900   -1.8070    0.0000 C   0  0  0  0  0  0  0  0  0  0  0  0
    2.7140   -2.9520    0.0000 N   0  0  0  0  0  0  0  0  0  0  0  0
    2.0480   -3.3310    0.0000 C   0  0  0  0  0  0  0  0  0  0  0  0
    1.3830   -2.9450    0.0000 C   0  0  0  0  0  0  0  0  0  0  0  0
    2.0450   -4.0970    0.0000 O   0  0  0  0  0  0  0  0  0  0  0  0
  1  2  1  0  0  0  0
  1  3  1  0  0  0  0
  1  4  1  0  0  0  0
  2  5  1  0  0  0  0
  2  6  1  6  0  0  0
  3  7  1  0  0  0  0
  4  8  1  0  0  0  0
  4  9  2  0  0  0  0
  4 10  2  0  0  0  0
  5 11  1  0  0  0  0
  6 12  1  0  0  0  0
  6 13  2  0  0  0  0
  7 14  1  0  0  0  0
  8 15  2  0  0  0  0
  8 16  1  0  0  0  0
 11 17  1  0  0  0  0
 12 18  1  0  0  0  0
 14 19  2  0  0  0  0
 15 20  1  0  0  0  0
 16 21  2  0  0  0  0
 17 22  2  0  0  0  0
 20 23  2  0  0  0  0
 23 24  1  0  0  0  0
 24 25  2  0  0  0  0
 24 26  1  0  0  0  0
 25 27  1  0  0  0  0
 26 28  2  0  0  0  0
 27 29  2  0  0  0  0
 27 30  1  0  0  0  0
 30 31  1  0  0  0  0
 31 32  1  0  0  0  0
 31 33  2  0  0  0  0
  7 11  2  0  0  0  0
 19 22  1  0  0  0  0
 21 23  1  0  0  0  0
 28 29  1  0  0  0  0
M  END
>  <ID_NEW>
CPDMM2009

>  <pIC50>
8.698970004336019

$$$$

  SciTegic12180812242D

 28 30  0  0  0  0            999 V2000
   -4.4958    2.1500    0.0000 C   0  0
   -4.4958    1.5291    0.0000 C   0  0
   -3.9587    1.2292    0.0000 C   0  0
   -3.4301    1.5291    0.0000 C   0  0
   -3.4301    2.1500    0.0000 C   0  0
   -3.9587    2.4625    0.0000 O   0  0
   -4.5000    0.9208    0.0000 C   0  0
   -3.4333    0.9167    0.0000 C   0  0
   -2.8965    1.2183    0.0000 S   0  0
   -2.2833    1.2292    0.0000 C   0  0
   -1.9763    0.6957    0.0000 C   0  0
   -1.3638    0.6978    0.0000 C   0  0
   -1.0585    1.2320    0.0000 C   0  0
   -1.3634    1.7613    0.0000 C   0  0
   -1.9828    1.7598    0.0000 C   0  0
   -0.4377    1.2314    0.0000 O   0  0
   -4.6624    0.3249    0.0000 O   0  0
   -4.9889    1.2978    0.0000 N   0  0
   -5.5916    1.1416    0.0000 O   0  0
   -2.9041    1.8417    0.0000 O   0  0
   -2.9041    0.6042    0.0000 O   0  0
    0.1709    1.2333    0.0000 C   0  0
    0.4813    0.6959    0.0000 C   0  0
    1.0933    0.6975    0.0000 C   0  0
    1.3945    1.2309    0.0000 C   0  0
    1.0862    1.7600    0.0000 C   0  0
    0.4715    1.7591    0.0000 C   0  0
    2.0084    1.2333    0.0000 Cl  0  0
 13 14  1  0
  3  7  1  0
 14 15  2  0
 15 10  1  0
  1  2  1  0
 13 16  1  0
  3  8  1  0
  7 17  2  0
  1  6  1  0
  7 18  1  0
  8  9  1  0
 18 19  1  0
  2  3  1  0
  9 20  2  0
  9 10  1  0
  9 21  2  0
  3  4  1  0
 16 22  1  0
 10 11  2  0
 22 23  2  0
  4  5  1  0
 23 24  1  0
 11 12  1  0
 24 25  2  0
  5  6  1  0
 25 26  1  0
 12 13  2  0
 26 27  2  0
 27 22  1  0
 25 28  1  0
M  END
>  <ID_NEW>
CPDMM2010

>  <pIC50>
8.698970004336019

$$$$

  -MTS-   10172316422D 0   0.00000     0.00000     0

 31 34  0  0  1  0  0  0  0  0999 V2000
    0.8320   -0.8750    0.0000 C   0  0  0  0  0  0  0  0  0  0  0  0
    0.8310   -1.6980    0.0000 C   0  0  0  0  0  0  0  0  0  0  0  0
    1.5500   -2.1110    0.0000 C   0  0  0  0  0  0  0  0  0  0  0  0
    1.5480   -0.4620    0.0000 C   0  0  0  0  0  0  0  0  0  0  0  0
    2.2590   -0.8710    0.0000 C   0  0  0  0  0  0  0  0  0  0  0  0
    2.2580   -1.6960    0.0000 C   0  0  0  0  0  0  0  0  0  0  0  0
    2.9730   -2.1110    0.0000 C   0  0  0  0  0  0  0  0  0  0  0  0
    3.6900   -1.6980    0.0000 N   0  0  0  0  0  0  0  0  0  0  0  0
    3.6900   -0.8740    0.0000 C   0  0  2  0  0  0  0  0  0  0  0  0
    2.9750   -0.4620    0.0000 C   0  0  0  0  0  0  0  0  0  0  0  0
    4.4120   -0.4590    0.0000 C   0  0  0  0  0  0  0  0  0  0  0  0
    5.1230   -0.8780    0.0000 N   0  0  0  0  0  0  0  0  0  0  0  0
    4.4130    0.3660    0.0000 O   0  0  0  0  0  0  0  0  0  0  0  0
    4.4090   -2.1170    0.0000 S   0  0  0  0  0  0  0  0  0  0  0  0
    4.8310   -1.3990    0.0000 O   0  0  0  0  0  0  0  0  0  0  0  0
    3.9900   -2.8400    0.0000 O   0  0  0  0  0  0  0  0  0  0  0  0
    5.1230   -2.5300    0.0000 C   0  0  0  0  0  0  0  0  0  0  0  0
    5.1230   -3.3550    0.0000 C   0  0  0  0  0  0  0  0  0  0  0  0
    5.8370   -3.7690    0.0000 C   0  0  0  0  0  0  0  0  0  0  0  0
    5.8340   -4.5930    0.0000 C   0  0  0  0  0  0  0  0  0  0  0  0
    6.5470   -5.0060    0.0000 C   0  0  0  0  0  0  0  0  0  0  0  0
    7.2630   -4.5940    0.0000 C   0  0  0  0  0  0  0  0  0  0  0  0
    7.2610   -3.7650    0.0000 C   0  0  0  0  0  0  0  0  0  0  0  0
    6.5470   -3.3550    0.0000 C   0  0  0  0  0  0  0  0  0  0  0  0
    7.9780   -5.0060    0.0000 C   0  0  0  0  0  0  0  0  0  0  0  0
    7.9730   -5.8300    0.0000 C   0  0  0  0  0  0  0  0  0  0  0  0
    8.6860   -6.2420    0.0000 C   0  0  0  0  0  0  0  0  0  0  0  0
    9.4020   -5.8290    0.0000 C   0  0  0  0  0  0  0  0  0  0  0  0
    9.3990   -5.0000    0.0000 N   0  0  0  0  0  0  0  0  0  0  0  0
    8.6840   -4.5920    0.0000 C   0  0  0  0  0  0  0  0  0  0  0  0
    5.8410   -0.4710    0.0000 O   0  0  0  0  0  0  0  0  0  0  0  0
 14 15  2  0  0  0  0
  5  4  2  0  0  0  0
 14 16  2  0  0  0  0
  4  1  1  0  0  0  0
 14 17  1  0  0  0  0
  5 10  1  0  0  0  0
 17 18  1  0  0  0  0
  6  7  1  0  0  0  0
 18 19  1  0  0  0  0
  7  8  1  0  0  0  0
 19 20  2  0  0  0  0
  8  9  1  0  0  0  0
 20 21  1  0  0  0  0
  9 10  1  0  0  0  0
 21 22  2  0  0  0  0
  5  6  1  0  0  0  0
 22 23  1  0  0  0  0
  9 11  1  6  0  0  0
 23 24  2  0  0  0  0
 24 19  1  0  0  0  0
 22 25  1  0  0  0  0
 11 12  1  0  0  0  0
 25 26  2  0  0  0  0
  2  3  1  0  0  0  0
 26 27  1  0  0  0  0
 11 13  2  0  0  0  0
 27 28  2  0  0  0  0
  3  6  2  0  0  0  0
 28 29  1  0  0  0  0
  8 14  1  0  0  0  0
 29 30  2  0  0  0  0
 30 25  1  0  0  0  0
  1  2  2  0  0  0  0
 12 31  1  0  0  0  0
M  END
>  <ID_NEW>
CPDMM2011

>  <pIC50>
8.698970004336019

$$$$

  -MTS-   10172316422D 0   0.00000     0.00000     0

 34 37  0  0  1  0  0  0  0  0999 V2000
    0.1190   -0.3920    0.0000 C   0  0  0  0  0  0  0  0  0  0  0  0
    0.1180   -1.2150    0.0000 C   0  0  0  0  0  0  0  0  0  0  0  0
    0.8370   -1.6280    0.0000 C   0  0  0  0  0  0  0  0  0  0  0  0
    0.8350    0.0210    0.0000 C   0  0  0  0  0  0  0  0  0  0  0  0
    1.5470   -0.3880    0.0000 C   0  0  0  0  0  0  0  0  0  0  0  0
    1.5460   -1.2130    0.0000 C   0  0  0  0  0  0  0  0  0  0  0  0
    2.2610   -1.6280    0.0000 C   0  0  0  0  0  0  0  0  0  0  0  0
    2.9770   -1.2150    0.0000 N   0  0  0  0  0  0  0  0  0  0  0  0
    2.9780   -0.3900    0.0000 C   0  0  2  0  0  0  0  0  0  0  0  0
    2.2620    0.0210    0.0000 C   0  0  0  0  0  0  0  0  0  0  0  0
    3.6990    0.0240    0.0000 C   0  0  0  0  0  0  0  0  0  0  0  0
    3.7010    0.8490    0.0000 O   0  0  0  0  0  0  0  0  0  0  0  0
    3.6970   -1.6340    0.0000 S   0  0  0  0  0  0  0  0  0  0  0  0
    4.1190   -0.9150    0.0000 O   0  0  0  0  0  0  0  0  0  0  0  0
    3.2780   -2.3560    0.0000 O   0  0  0  0  0  0  0  0  0  0  0  0
    4.4110   -2.0470    0.0000 C   0  0  0  0  0  0  0  0  0  0  0  0
    4.4100   -2.8720    0.0000 C   0  0  0  0  0  0  0  0  0  0  0  0
    5.1240   -3.2850    0.0000 C   0  0  0  0  0  0  0  0  0  0  0  0
    5.1210   -4.1090    0.0000 C   0  0  0  0  0  0  0  0  0  0  0  0
    5.8350   -4.5220    0.0000 C   0  0  0  0  0  0  0  0  0  0  0  0
    6.5500   -4.1110    0.0000 C   0  0  0  0  0  0  0  0  0  0  0  0
    6.5490   -3.2810    0.0000 C   0  0  0  0  0  0  0  0  0  0  0  0
    5.8350   -2.8720    0.0000 C   0  0  0  0  0  0  0  0  0  0  0  0
    4.4130   -0.3900    0.0000 N   0  0  0  0  0  0  0  0  0  0  0  0
    5.1280    0.0210    0.0000 O   0  0  0  0  0  0  0  0  0  0  0  0
    7.2650   -4.5230    0.0000 C   0  0  0  0  0  0  0  0  0  0  0  0
    7.2600   -5.3470    0.0000 C   0  0  0  0  0  0  0  0  0  0  0  0
    7.9740   -5.7590    0.0000 C   0  0  0  0  0  0  0  0  0  0  0  0
    8.6890   -5.3460    0.0000 C   0  0  0  0  0  0  0  0  0  0  0  0
    8.6860   -4.5170    0.0000 C   0  0  0  0  0  0  0  0  0  0  0  0
    7.9720   -4.1080    0.0000 C   0  0  0  0  0  0  0  0  0  0  0  0
    9.4040   -5.7570    0.0000 C   0  0  0  0  0  0  0  0  0  0  0  0
    9.4060   -6.5820    0.0000 O   0  0  0  0  0  0  0  0  0  0  0  0
   10.1180   -5.3440    0.0000 N   0  0  0  0  0  0  0  0  0  0  0  0
  4  1  1  0  0  0  0
 16 17  1  0  0  0  0
  5 10  1  0  0  0  0
 17 18  1  0  0  0  0
  6  7  1  0  0  0  0
 18 19  2  0  0  0  0
  7  8  1  0  0  0  0
 19 20  1  0  0  0  0
  8  9  1  0  0  0  0
 20 21  2  0  0  0  0
  9 10  1  0  0  0  0
 21 22  1  0  0  0  0
  5  6  1  0  0  0  0
 22 23  2  0  0  0  0
 23 18  1  0  0  0  0
  9 11  1  6  0  0  0
 11 24  1  0  0  0  0
 24 25  1  0  0  0  0
 11 12  2  0  0  0  0
 21 26  1  0  0  0  0
  2  3  1  0  0  0  0
 26 27  2  0  0  0  0
  8 13  1  0  0  0  0
 27 28  1  0  0  0  0
  3  6  2  0  0  0  0
 28 29  2  0  0  0  0
 13 14  2  0  0  0  0
 29 30  1  0  0  0  0
  1  2  2  0  0  0  0
 30 31  2  0  0  0  0
 31 26  1  0  0  0  0
 13 15  2  0  0  0  0
 29 32  1  0  0  0  0
  5  4  2  0  0  0  0
 32 33  2  0  0  0  0
 13 16  1  0  0  0  0
 32 34  1  0  0  0  0
M  END
>  <ID_NEW>
CPDMM2012

>  <pIC50>
8.698970004336019

$$$$

  -MTS-   10172316422D 0   0.00000     0.00000     0

 28 31  0  0  1  0  0  0  0  0999 V2000
   -5.7060    2.6540    0.0000 C   0  0  0  0  0  0  0  0  0  0  0  0
   -5.7070    1.9140    0.0000 C   0  0  0  0  0  0  0  0  0  0  0  0
   -5.0710    1.5470    0.0000 C   0  0  0  0  0  0  0  0  0  0  0  0
   -5.0730    3.0210    0.0000 C   0  0  0  0  0  0  0  0  0  0  0  0
   -4.4370    2.6580    0.0000 C   0  0  0  0  0  0  0  0  0  0  0  0
   -4.4330    1.9120    0.0000 C   0  0  0  0  0  0  0  0  0  0  0  0
   -3.7890    1.5470    0.0000 C   0  0  1  0  0  0  0  0  0  0  0  0
   -3.1520    1.9180    0.0000 N   0  0  0  0  0  0  0  0  0  0  0  0
   -3.1550    2.6600    0.0000 C   0  0  0  0  0  0  0  0  0  0  0  0
   -3.8000    3.0300    0.0000 C   0  0  0  0  0  0  0  0  0  0  0  0
   -3.7910    0.8090    0.0000 C   0  0  0  0  0  0  0  0  0  0  0  0
   -4.4240    0.4370    0.0000 N   0  0  0  0  0  0  0  0  0  0  0  0
   -3.1530    0.4410    0.0000 O   0  0  0  0  0  0  0  0  0  0  0  0
   -2.5170    1.5540    0.0000 S   0  0  0  0  0  0  0  0  0  0  0  0
   -4.4180   -0.2970    0.0000 O   0  0  0  0  0  0  0  0  0  0  0  0
   -1.9010    1.7290    0.0000 C   0  0  0  0  0  0  0  0  0  0  0  0
   -1.3080    1.3130    0.0000 C   0  0  0  0  0  0  0  0  0  0  0  0
   -0.6530    1.6210    0.0000 C   0  0  0  0  0  0  0  0  0  0  0  0
   -0.5920    2.3430    0.0000 C   0  0  0  0  0  0  0  0  0  0  0  0
   -1.1910    2.7560    0.0000 C   0  0  0  0  0  0  0  0  0  0  0  0
   -1.8430    2.4460    0.0000 C   0  0  0  0  0  0  0  0  0  0  0  0
    0.0630    2.6520    0.0000 N   0  0  0  0  0  0  0  0  0  0  0  0
    0.6970    2.3000    0.0000 C   0  0  0  0  0  0  0  0  0  0  0  0
    1.2240    2.7970    0.0000 C   0  0  0  0  0  0  0  0  0  0  0  0
    0.9150    3.4520    0.0000 C   0  0  0  0  0  0  0  0  0  0  0  0
    0.1970    3.3600    0.0000 N   0  0  0  0  0  0  0  0  0  0  0  0
   -3.1080    0.9750    0.0000 O   0  0  0  0  0  0  0  0  0  0  0  0
   -2.1120    0.8460    0.0000 O   0  0  0  0  0  0  0  0  0  0  0  0
 18 19  2  0  0  0  0
 19 20  1  0  0  0  0
 20 21  2  0  0  0  0
 21 16  1  0  0  0  0
 19 22  1  0  0  0  0
 22 23  1  0  0  0  0
  5  6  1  0  0  0  0
  7 11  1  1  0  0  0
 23 24  2  0  0  0  0
 24 25  1  0  0  0  0
 25 26  2  0  0  0  0
 26 22  1  0  0  0  0
 14 16  1  0  0  0  0
  2  3  1  0  0  0  0
 14 27  2  0  0  0  0
 11 12  1  0  0  0  0
 14 28  2  0  0  0  0
 11 13  2  0  0  0  0
  3  6  2  0  0  0  0
 12 15  1  0  0  0  0
  8 14  1  0  0  0  0
  1  2  2  0  0  0  0
  5  4  2  0  0  0  0
  4  1  1  0  0  0  0
  5 10  1  0  0  0  0
  6  7  1  0  0  0  0
  7  8  1  0  0  0  0
  8  9  1  0  0  0  0
  9 10  1  0  0  0  0
 16 17  2  0  0  0  0
 17 18  1  0  0  0  0
M  END
>  <ID_NEW>
CPDMM2013

>  <pIC50>
8.698970004336019

$$$$

  SciTegic12180812502D

 34 37  0  0  0  0            999 V2000
    0.7595    1.5515    0.0000 C   0  0
    1.5010    1.5344    0.0000 C   0  0
    0.4021    2.2028    0.0000 C   0  0
    0.3802    0.9185    0.0000 C   0  0
    1.8869    2.1715    0.0000 C   0  0
    1.8554    0.8849    0.0000 C   0  0
   -0.3394    2.2200    0.0000 C   0  0
   -0.3631    0.9327    0.0000 C   0  0
    2.6312    2.1525    0.0000 C   0  0
    2.5969    0.8677    0.0000 C   0  0
   -0.7234    1.5858    0.0000 C   0  0
    2.9886    1.5012    0.0000 C   0  0
   -1.4667    1.6000    0.0000 S   0  0
    3.7283    1.4811    0.0000 Cl  0  0
   -1.8508    0.9659    0.0000 O   0  0
   -1.2570    2.3126    0.0000 O   0  0
   -3.6797    1.7950    0.0000 C   0  0
   -3.6859    2.6118    0.0000 C   0  0
   -2.9702    1.3942    0.0000 C   0  0
   -4.3819    1.3822    0.0000 C   0  0
   -4.4000    3.0203    0.0000 C   0  0
   -2.9771    3.0284    0.0000 C   0  0
   -2.2614    1.8108    0.0000 N   0  0
   -2.9640    0.5774    0.0000 C   0  0
   -5.0903    1.7862    0.0000 C   0  0
   -5.1021    2.6076    0.0000 C   0  0
   -2.2665    2.6257    0.0000 C   0  0
   -2.2499    0.1689    0.0000 N   0  0
   -3.6661    0.1647    0.0000 O   0  0
   -5.7990    1.3696    0.0000 O   0  0
   -5.8105    3.0115    0.0000 O   0  0
   -5.7958    0.5511    0.0000 C   0  0
   -5.8210    3.8304    0.0000 C   0  0
   -2.2466   -0.6561    0.0000 O   0  0
  1  2  1  0
  1  3  2  0
  1  4  1  0
  2  5  1  0
  2  6  2  0
  3  7  1  0
  4  8  2  0
  5  9  2  0
  6 10  1  0
  7 11  2  0
  9 12  1  0
 11 13  1  0
 12 14  1  0
 13 15  2  0
 13 16  2  0
  8 11  1  0
 10 12  2  0
 17 18  1  0
 17 19  1  0
 17 20  2  0
 18 21  2  0
 18 22  1  0
 19 23  1  0
 19 24  1  0
 20 25  1  0
 21 26  1  0
 22 27  1  0
 24 28  1  0
 24 29  2  0
 25 30  1  0
 26 31  1  0
 30 32  1  0
 31 33  1  0
 23 27  1  0
 25 26  2  0
 23 13  1  0
 28 34  1  0
M  END
>  <ID_NEW>
CPDMM2014

>  <pIC50>
8.698970004336019

$$$$

  -MTS-   10172316422D 0   0.00000     0.00000     0

 32 35  0  0  1  0  0  0  0  0999 V2000
   -3.7210    1.4880    0.0000 C   0  0  2  0  0  0  0  0  0  0  0  0
   -3.0090    1.8960    0.0000 N   0  0  0  0  0  0  0  0  0  0  0  0
   -3.0090    2.7210    0.0000 C   0  0  0  0  0  0  0  0  0  0  0  0
   -3.7210    3.1380    0.0000 C   0  0  0  0  0  0  0  0  0  0  0  0
   -4.4330    1.8960    0.0000 C   0  0  2  0  0  0  0  0  0  0  0  0
   -4.4380    2.7210    0.0000 C   0  0  1  0  0  0  0  0  0  0  0  0
   -5.2240    2.9710    0.0000 O   0  0  0  0  0  0  0  0  0  0  0  0
   -5.7050    2.3010    0.0000 C   0  0  0  0  0  0  0  0  0  0  0  0
   -5.2160    1.6370    0.0000 C   0  0  0  0  0  0  0  0  0  0  0  0
   -3.7210    0.6630    0.0000 C   0  0  0  0  0  0  0  0  0  0  0  0
   -4.4340    0.2490    0.0000 N   0  0  0  0  0  0  0  0  0  0  0  0
   -3.0050    0.2490    0.0000 O   0  0  0  0  0  0  0  0  0  0  0  0
   -4.4320   -0.5760    0.0000 O   0  0  0  0  0  0  0  0  0  0  0  0
   -2.2950    1.4820    0.0000 S   0  0  0  0  0  0  0  0  0  0  0  0
   -2.8830    0.9000    0.0000 O   0  0  0  0  0  0  0  0  0  0  0  0
   -1.8870    0.7710    0.0000 O   0  0  0  0  0  0  0  0  0  0  0  0
   -1.5000    1.7000    0.0000 C   0  0  0  0  0  0  0  0  0  0  0  0
   -0.9150    1.1170    0.0000 C   0  0  0  0  0  0  0  0  0  0  0  0
   -0.1200    1.3340    0.0000 C   0  0  0  0  0  0  0  0  0  0  0  0
    0.0900    2.1330    0.0000 C   0  0  0  0  0  0  0  0  0  0  0  0
   -0.5010    2.7140    0.0000 C   0  0  0  0  0  0  0  0  0  0  0  0
   -1.2940    2.4940    0.0000 C   0  0  0  0  0  0  0  0  0  0  0  0
    0.8850    2.3520    0.0000 O   0  0  0  0  0  0  0  0  0  0  0  0
    1.4720    1.7720    0.0000 C   0  0  0  0  0  0  0  0  0  0  0  0
    1.2600    0.9770    0.0000 C   0  0  0  0  0  0  0  0  0  0  0  0
    1.8470    0.3970    0.0000 C   0  0  0  0  0  0  0  0  0  0  0  0
    2.6430    0.6160    0.0000 C   0  0  0  0  0  0  0  0  0  0  0  0
    2.8500    1.4190    0.0000 C   0  0  0  0  0  0  0  0  0  0  0  0
    2.2620    1.9950    0.0000 C   0  0  0  0  0  0  0  0  0  0  0  0
    3.2310    0.0370    0.0000 F   0  0  0  0  0  0  0  0  0  0  0  0
   -4.5470    3.7150    0.0000 H   0  0  0  0  0  0  0  0  0  0  0  0
   -4.5340    0.9010    0.0000 H   0  0  0  0  0  0  0  0  0  0  0  0
 10 12  2  0  0  0  0
 11 13  1  0  0  0  0
  2 14  1  0  0  0  0
 14 15  2  0  0  0  0
 14 16  2  0  0  0  0
 14 17  1  0  0  0  0
 17 18  2  0  0  0  0
 18 19  1  0  0  0  0
 19 20  2  0  0  0  0
 20 21  1  0  0  0  0
 21 22  2  0  0  0  0
 22 17  1  0  0  0  0
  6  4  1  0  0  0  0
  5  1  1  0  0  0  0
  1  2  1  0  0  0  0
  2  3  1  0  0  0  0
  3  4  1  0  0  0  0
  5  6  1  0  0  0  0
  6  7  1  0  0  0  0
  7  8  1  0  0  0  0
  8  9  1  0  0  0  0
  9  5  1  0  0  0  0
  1 10  1  1  0  0  0
 10 11  1  0  0  0  0
 20 23  1  0  0  0  0
 23 24  1  0  0  0  0
 24 25  2  0  0  0  0
 25 26  1  0  0  0  0
 26 27  2  0  0  0  0
 27 28  1  0  0  0  0
 28 29  2  0  0  0  0
 29 24  1  0  0  0  0
 27 30  1  0  0  0  0
  6 31  1  6  0  0  0
  5 32  1  6  0  0  0
M  END
>  <ID_NEW>
CPDMM2015

>  <pIC50>
8.68973163336755

$$$$

  -MTS-   10172316422D 0   0.00000     0.00000     0

 33 36  0  0  1  0  0  0  0  0999 V2000
   -0.2640   -1.1960    0.0000 C   0  0  0  0  0  0  0  0  0  0  0  0
   -0.2650   -2.0190    0.0000 C   0  0  0  0  0  0  0  0  0  0  0  0
    0.4540   -2.4320    0.0000 C   0  0  0  0  0  0  0  0  0  0  0  0
    0.4520   -0.7830    0.0000 C   0  0  0  0  0  0  0  0  0  0  0  0
    1.1630   -1.1920    0.0000 C   0  0  0  0  0  0  0  0  0  0  0  0
    1.1630   -2.0170    0.0000 C   0  0  0  0  0  0  0  0  0  0  0  0
    1.8780   -2.4320    0.0000 C   0  0  0  0  0  0  0  0  0  0  0  0
    2.5940   -2.0190    0.0000 N   0  0  0  0  0  0  0  0  0  0  0  0
    2.5940   -1.1950    0.0000 C   0  0  2  0  0  0  0  0  0  0  0  0
    1.8790   -0.7830    0.0000 C   0  0  0  0  0  0  0  0  0  0  0  0
    3.3160   -0.7800    0.0000 C   0  0  0  0  0  0  0  0  0  0  0  0
    4.0280   -1.1980    0.0000 N   0  0  0  0  0  0  0  0  0  0  0  0
    3.3180    0.0450    0.0000 O   0  0  0  0  0  0  0  0  0  0  0  0
    3.3140   -2.4380    0.0000 S   0  0  0  0  0  0  0  0  0  0  0  0
    3.7350   -1.7200    0.0000 O   0  0  0  0  0  0  0  0  0  0  0  0
    2.8940   -3.1610    0.0000 O   0  0  0  0  0  0  0  0  0  0  0  0
    4.0360   -2.8600    0.0000 C   0  0  0  0  0  0  0  0  0  0  0  0
    4.7560   -2.4470    0.0000 C   0  0  0  0  0  0  0  0  0  0  0  0
    5.4700   -2.8640    0.0000 C   0  0  0  0  0  0  0  0  0  0  0  0
    5.4590   -3.6930    0.0000 C   0  0  0  0  0  0  0  0  0  0  0  0
    6.1720   -4.1060    0.0000 C   0  0  0  0  0  0  0  0  0  0  0  0
    6.9000   -3.7020    0.0000 C   0  0  0  0  0  0  0  0  0  0  0  0
    6.9070   -2.8770    0.0000 C   0  0  0  0  0  0  0  0  0  0  0  0
    6.1890   -2.4550    0.0000 C   0  0  0  0  0  0  0  0  0  0  0  0
    7.6150   -4.1140    0.0000 C   0  0  0  0  0  0  0  0  0  0  0  0
    7.6140   -4.9430    0.0000 C   0  0  0  0  0  0  0  0  0  0  0  0
    8.3280   -5.3550    0.0000 C   0  0  0  0  0  0  0  0  0  0  0  0
    9.0470   -4.9420    0.0000 C   0  0  0  0  0  0  0  0  0  0  0  0
    9.0490   -4.1130    0.0000 C   0  0  0  0  0  0  0  0  0  0  0  0
    8.3300   -3.7000    0.0000 C   0  0  0  0  0  0  0  0  0  0  0  0
    9.7710   -5.3620    0.0000 C   0  0  0  0  0  0  0  0  0  0  0  0
   10.4970   -5.7780    0.0000 N   0  0  0  0  0  0  0  0  0  0  0  0
    4.7450   -0.7920    0.0000 O   0  0  0  0  0  0  0  0  0  0  0  0
 14 16  2  0  0  0  0
  4  1  1  0  0  0  0
 14 17  1  0  0  0  0
  5 10  1  0  0  0  0
 17 18  1  0  0  0  0
  6  7  1  0  0  0  0
 18 19  1  0  0  0  0
  7  8  1  0  0  0  0
 19 20  2  0  0  0  0
  8  9  1  0  0  0  0
 20 21  1  0  0  0  0
  9 10  1  0  0  0  0
 21 22  2  0  0  0  0
  5  6  1  0  0  0  0
 22 23  1  0  0  0  0
  9 11  1  6  0  0  0
 23 24  2  0  0  0  0
 24 19  1  0  0  0  0
 22 25  1  0  0  0  0
 11 12  1  0  0  0  0
 25 26  2  0  0  0  0
  2  3  1  0  0  0  0
 26 27  1  0  0  0  0
 11 13  2  0  0  0  0
 27 28  2  0  0  0  0
  3  6  2  0  0  0  0
 28 29  1  0  0  0  0
  8 14  1  0  0  0  0
 29 30  2  0  0  0  0
 30 25  1  0  0  0  0
  1  2  2  0  0  0  0
 28 31  1  0  0  0  0
 14 15  2  0  0  0  0
 31 32  3  0  0  0  0
  5  4  2  0  0  0  0
 12 33  1  0  0  0  0
M  END
>  <ID_NEW>
CPDMM2016

>  <pIC50>
8.67778070526608

$$$$

  -MTS-   10172316422D 0   0.00000     0.00000     0

 32 35  0  0  1  0  0  0  0  0999 V2000
   -5.8310    2.8920    0.0000 C   0  0  0  0  0  0  0  0  0  0  0  0
   -5.8320    2.0640    0.0000 C   0  0  0  0  0  0  0  0  0  0  0  0
   -5.1170    1.6510    0.0000 C   0  0  0  0  0  0  0  0  0  0  0  0
   -5.1190    3.3040    0.0000 C   0  0  0  0  0  0  0  0  0  0  0  0
   -4.4030    2.8950    0.0000 C   0  0  0  0  0  0  0  0  0  0  0  0
   -4.4000    2.0620    0.0000 C   0  0  0  0  0  0  0  0  0  0  0  0
   -3.6810    1.6510    0.0000 C   0  0  1  0  0  0  0  0  0  0  0  0
   -2.9600    2.0680    0.0000 N   0  0  0  0  0  0  0  0  0  0  0  0
   -2.9640    2.9010    0.0000 C   0  0  0  0  0  0  0  0  0  0  0  0
   -3.6880    3.3170    0.0000 C   0  0  0  0  0  0  0  0  0  0  0  0
   -3.6780    0.8260    0.0000 C   0  0  0  0  0  0  0  0  0  0  0  0
   -4.3900    0.4080    0.0000 N   0  0  0  0  0  0  0  0  0  0  0  0
   -2.9610    0.4120    0.0000 O   0  0  0  0  0  0  0  0  0  0  0  0
   -2.2450    1.6580    0.0000 S   0  0  0  0  0  0  0  0  0  0  0  0
   -2.9620    1.2500    0.0000 O   0  0  0  0  0  0  0  0  0  0  0  0
   -1.8370    0.9460    0.0000 O   0  0  0  0  0  0  0  0  0  0  0  0
   -1.4500    1.8750    0.0000 C   0  0  0  0  0  0  0  0  0  0  0  0
   -0.8650    1.2930    0.0000 C   0  0  0  0  0  0  0  0  0  0  0  0
   -0.0710    1.5100    0.0000 C   0  0  0  0  0  0  0  0  0  0  0  0
    0.1380    2.3070    0.0000 C   0  0  0  0  0  0  0  0  0  0  0  0
   -0.4520    2.8880    0.0000 C   0  0  0  0  0  0  0  0  0  0  0  0
   -1.2440    2.6680    0.0000 C   0  0  0  0  0  0  0  0  0  0  0  0
    0.9340    2.5260    0.0000 O   0  0  0  0  0  0  0  0  0  0  0  0
    1.5210    1.9470    0.0000 C   0  0  0  0  0  0  0  0  0  0  0  0
    1.3100    1.1510    0.0000 C   0  0  0  0  0  0  0  0  0  0  0  0
    1.8970    0.5720    0.0000 C   0  0  0  0  0  0  0  0  0  0  0  0
    2.6930    0.7910    0.0000 C   0  0  0  0  0  0  0  0  0  0  0  0
    2.9000    1.5940    0.0000 C   0  0  0  0  0  0  0  0  0  0  0  0
    2.3120    2.1690    0.0000 C   0  0  0  0  0  0  0  0  0  0  0  0
   -4.3960   -0.4170    0.0000 O   0  0  0  0  0  0  0  0  0  0  0  0
    3.2810    0.2120    0.0000 O   0  0  0  0  0  0  0  0  0  0  0  0
    3.0740   -0.5870    0.0000 C   0  0  0  0  0  0  0  0  0  0  0  0
  7  8  1  0  0  0  0
  8  9  1  0  0  0  0
  9 10  1  0  0  0  0
  7 11  1  1  0  0  0
 11 12  1  0  0  0  0
 11 13  2  0  0  0  0
  8 14  1  0  0  0  0
 14 15  2  0  0  0  0
 14 16  2  0  0  0  0
 14 17  1  0  0  0  0
 17 18  2  0  0  0  0
 18 19  1  0  0  0  0
 19 20  2  0  0  0  0
 20 21  1  0  0  0  0
 21 22  2  0  0  0  0
 22 17  1  0  0  0  0
 20 23  1  0  0  0  0
 23 24  1  0  0  0  0
 24 25  2  0  0  0  0
 25 26  1  0  0  0  0
 26 27  2  0  0  0  0
 27 28  1  0  0  0  0
 28 29  2  0  0  0  0
 29 24  1  0  0  0  0
  1  2  2  0  0  0  0
  2  3  1  0  0  0  0
  3  6  2  0  0  0  0
  5  4  2  0  0  0  0
  4  1  1  0  0  0  0
  5  6  1  0  0  0  0
  5 10  1  0  0  0  0
  6  7  1  0  0  0  0
 12 30  1  0  0  0  0
 27 31  1  0  0  0  0
 31 32  1  0  0  0  0
M  END
>  <ID_NEW>
CPDMM2017

>  <pIC50>
8.657577319177793

$$$$

  -MTS-   10172316422D 0   0.00000     0.00000     0

 30 33  0  0  1  0  0  0  0  0999 V2000
   -5.8310    2.8460    0.0000 C   0  0  0  0  0  0  0  0  0  0  0  0
   -5.8320    2.0190    0.0000 C   0  0  0  0  0  0  0  0  0  0  0  0
   -5.1170    1.6060    0.0000 C   0  0  0  0  0  0  0  0  0  0  0  0
   -5.1190    3.2590    0.0000 C   0  0  0  0  0  0  0  0  0  0  0  0
   -4.4030    2.8500    0.0000 C   0  0  0  0  0  0  0  0  0  0  0  0
   -4.4000    2.0160    0.0000 C   0  0  0  0  0  0  0  0  0  0  0  0
   -3.6810    1.6050    0.0000 C   0  0  1  0  0  0  0  0  0  0  0  0
   -2.9600    2.0220    0.0000 N   0  0  0  0  0  0  0  0  0  0  0  0
   -2.9640    2.8550    0.0000 C   0  0  0  0  0  0  0  0  0  0  0  0
   -3.6880    3.2710    0.0000 C   0  0  0  0  0  0  0  0  0  0  0  0
   -3.6780    0.7800    0.0000 C   0  0  0  0  0  0  0  0  0  0  0  0
   -4.3900    0.3620    0.0000 N   0  0  0  0  0  0  0  0  0  0  0  0
   -2.9610    0.3660    0.0000 O   0  0  0  0  0  0  0  0  0  0  0  0
   -2.2450    1.6120    0.0000 S   0  0  0  0  0  0  0  0  0  0  0  0
   -2.9620    1.2040    0.0000 O   0  0  0  0  0  0  0  0  0  0  0  0
   -1.8370    0.9000    0.0000 O   0  0  0  0  0  0  0  0  0  0  0  0
   -1.4500    1.8290    0.0000 C   0  0  0  0  0  0  0  0  0  0  0  0
   -0.8650    1.2470    0.0000 C   0  0  0  0  0  0  0  0  0  0  0  0
   -0.0710    1.4640    0.0000 C   0  0  0  0  0  0  0  0  0  0  0  0
    0.1380    2.2610    0.0000 C   0  0  0  0  0  0  0  0  0  0  0  0
   -0.4520    2.8420    0.0000 C   0  0  0  0  0  0  0  0  0  0  0  0
   -1.2440    2.6220    0.0000 C   0  0  0  0  0  0  0  0  0  0  0  0
    0.9340    2.4800    0.0000 O   0  0  0  0  0  0  0  0  0  0  0  0
    1.5210    1.9010    0.0000 C   0  0  0  0  0  0  0  0  0  0  0  0
    1.3100    1.1050    0.0000 C   0  0  0  0  0  0  0  0  0  0  0  0
    1.8970    0.5260    0.0000 C   0  0  0  0  0  0  0  0  0  0  0  0
    2.6930    0.7450    0.0000 C   0  0  0  0  0  0  0  0  0  0  0  0
    2.9000    1.5480    0.0000 C   0  0  0  0  0  0  0  0  0  0  0  0
    2.3120    2.1240    0.0000 N   0  0  0  0  0  0  0  0  0  0  0  0
   -4.3960   -0.4620    0.0000 O   0  0  0  0  0  0  0  0  0  0  0  0
  7  8  1  0  0  0  0
  8  9  1  0  0  0  0
  9 10  1  0  0  0  0
  7 11  1  1  0  0  0
 11 12  1  0  0  0  0
 11 13  2  0  0  0  0
  8 14  1  0  0  0  0
 14 15  2  0  0  0  0
 14 16  2  0  0  0  0
 14 17  1  0  0  0  0
 17 18  2  0  0  0  0
 18 19  1  0  0  0  0
 19 20  2  0  0  0  0
 20 21  1  0  0  0  0
 21 22  2  0  0  0  0
 22 17  1  0  0  0  0
 20 23  1  0  0  0  0
 23 24  1  0  0  0  0
 24 25  2  0  0  0  0
 25 26  1  0  0  0  0
 26 27  2  0  0  0  0
 27 28  1  0  0  0  0
 28 29  2  0  0  0  0
 29 24  1  0  0  0  0
  1  2  2  0  0  0  0
  2  3  1  0  0  0  0
  3  6  2  0  0  0  0
  5  4  2  0  0  0  0
  4  1  1  0  0  0  0
  5  6  1  0  0  0  0
  5 10  1  0  0  0  0
  6  7  1  0  0  0  0
 12 30  1  0  0  0  0
M  END
>  <ID_NEW>
CPDMM2018

>  <pIC50>
8.657577319177793

$$$$

  SciTegic12180812542D

 33 36  0  0  0  0            999 V2000
    3.4819   -4.0167    0.0000 C   0  0
    3.4807   -4.7731    0.0000 C   0  0
    4.1372   -5.1527    0.0000 C   0  0
    4.1354   -3.6414    0.0000 C   0  0
    4.7883   -4.0130    0.0000 C   0  0
    4.7871   -4.7706    0.0000 C   0  0
    5.4376   -5.1503    0.0000 C   0  0
    6.0938   -4.7726    0.0000 N   0  0
    6.0949   -4.0150    0.0000 C   0  0
    5.4399   -3.6350    0.0000 C   0  0
    5.4353   -5.9003    0.0000 C   0  0
    4.7822   -6.2775    0.0000 N   0  0
    6.0861   -6.2815    0.0000 O   0  0
    4.7799   -7.0316    0.0000 O   0  0
    6.7488   -5.1538    0.0000 S   0  0
    7.1167   -4.4916    0.0000 O   0  0
    6.3625   -5.8000    0.0000 O   0  0
    7.3959   -5.5250    0.0000 C   0  0
    7.3940   -6.2742    0.0000 C   0  0
    8.0402   -6.6494    0.0000 N   0  0
    8.6916   -6.2725    0.0000 C   0  0
    8.6881   -5.5202    0.0000 C   0  0
    8.0371   -5.1528    0.0000 C   0  0
    9.3446   -6.6499    0.0000 O   0  0
    9.9955   -6.2691    0.0000 C   0  0
   10.6461   -6.6480    0.0000 C   0  0
   11.2966   -6.2679    0.0000 C   0  0
   11.2951   -5.5128    0.0000 C   0  0
   10.6371   -5.1397    0.0000 C   0  0
    9.9896   -5.5181    0.0000 C   0  0
    4.1399   -5.9110    0.0000 F   0  0
    4.1339   -2.8901    0.0000 C   0  0
    4.7838   -2.5132    0.0000 C   0  0
 15 18  1  0
 18 19  2  0
  6  7  1  0
 19 20  1  0
  7  8  1  0
 20 21  2  0
  8  9  1  0
 21 22  1  0
  9 10  1  0
 22 23  2  0
 23 18  1  0
  5  6  1  0
  7 11  1  0
 11 12  1  0
  2  3  1  0
 11 13  2  0
  3  6  2  0
 12 14  1  0
 21 24  1  0
  1  2  2  0
 24 25  1  0
  8 15  1  0
 25 26  2  0
  5  4  2  0
 26 27  1  0
 15 16  2  0
 27 28  2  0
  4  1  1  0
 28 29  1  0
 29 30  2  0
 30 25  1  0
  3 31  1  0
 15 17  2  0
  4 32  1  0
  5 10  1  0
 32 33  1  0
M  END
>  <ID_NEW>
CPDMM2019

>  <pIC50>
8.657577319177793

$$$$

  -MTS-   10172316422D 0   0.00000     0.00000     0

 31 34  0  0  1  0  0  0  0  0999 V2000
   -0.8600    0.2040    0.0000 C   0  0  0  0  0  0  0  0  0  0  0  0
   -0.8610   -0.6190    0.0000 C   0  0  0  0  0  0  0  0  0  0  0  0
   -0.1420   -1.0320    0.0000 C   0  0  0  0  0  0  0  0  0  0  0  0
   -0.1440    0.6170    0.0000 C   0  0  0  0  0  0  0  0  0  0  0  0
    0.5670    0.2080    0.0000 C   0  0  0  0  0  0  0  0  0  0  0  0
    0.5670   -0.6170    0.0000 C   0  0  0  0  0  0  0  0  0  0  0  0
    1.2820   -1.0320    0.0000 C   0  0  0  0  0  0  0  0  0  0  0  0
    1.9980   -0.6190    0.0000 N   0  0  0  0  0  0  0  0  0  0  0  0
    1.9990    0.2050    0.0000 C   0  0  2  0  0  0  0  0  0  0  0  0
    1.2830    0.6170    0.0000 C   0  0  0  0  0  0  0  0  0  0  0  0
    2.7200    0.6200    0.0000 C   0  0  0  0  0  0  0  0  0  0  0  0
    3.4320    0.2010    0.0000 N   0  0  0  0  0  0  0  0  0  0  0  0
    2.7220    1.4450    0.0000 O   0  0  0  0  0  0  0  0  0  0  0  0
    2.7180   -1.0380    0.0000 S   0  0  0  0  0  0  0  0  0  0  0  0
    3.1390   -0.3200    0.0000 O   0  0  0  0  0  0  0  0  0  0  0  0
    2.2980   -1.7610    0.0000 O   0  0  0  0  0  0  0  0  0  0  0  0
    3.4320   -1.4510    0.0000 C   0  0  0  0  0  0  0  0  0  0  0  0
    3.4310   -2.2760    0.0000 C   0  0  0  0  0  0  0  0  0  0  0  0
    4.1450   -2.6890    0.0000 C   0  0  0  0  0  0  0  0  0  0  0  0
    4.1420   -3.5140    0.0000 C   0  0  0  0  0  0  0  0  0  0  0  0
    4.8550   -3.9270    0.0000 C   0  0  0  0  0  0  0  0  0  0  0  0
    5.5710   -3.5150    0.0000 C   0  0  0  0  0  0  0  0  0  0  0  0
    5.5690   -2.6850    0.0000 C   0  0  0  0  0  0  0  0  0  0  0  0
    4.8560   -2.2760    0.0000 C   0  0  0  0  0  0  0  0  0  0  0  0
    6.2860   -3.9270    0.0000 C   0  0  0  0  0  0  0  0  0  0  0  0
    6.2810   -4.7510    0.0000 C   0  0  0  0  0  0  0  0  0  0  0  0
    6.9950   -5.1630    0.0000 C   0  0  0  0  0  0  0  0  0  0  0  0
    7.7100   -4.7500    0.0000 N   0  0  0  0  0  0  0  0  0  0  0  0
    7.7070   -3.9210    0.0000 C   0  0  0  0  0  0  0  0  0  0  0  0
    6.9930   -3.5130    0.0000 C   0  0  0  0  0  0  0  0  0  0  0  0
    4.1500    0.6080    0.0000 O   0  0  0  0  0  0  0  0  0  0  0  0
 14 15  2  0  0  0  0
  5  4  2  0  0  0  0
 14 16  2  0  0  0  0
  4  1  1  0  0  0  0
 14 17  1  0  0  0  0
  5 10  1  0  0  0  0
 17 18  1  0  0  0  0
  6  7  1  0  0  0  0
 18 19  1  0  0  0  0
  7  8  1  0  0  0  0
 19 20  2  0  0  0  0
  8  9  1  0  0  0  0
 20 21  1  0  0  0  0
  9 10  1  0  0  0  0
 21 22  2  0  0  0  0
  5  6  1  0  0  0  0
 22 23  1  0  0  0  0
  9 11  1  6  0  0  0
 23 24  2  0  0  0  0
 24 19  1  0  0  0  0
 22 25  1  0  0  0  0
 11 12  1  0  0  0  0
 25 26  2  0  0  0  0
  2  3  1  0  0  0  0
 26 27  1  0  0  0  0
 11 13  2  0  0  0  0
 27 28  2  0  0  0  0
  3  6  2  0  0  0  0
 28 29  1  0  0  0  0
  8 14  1  0  0  0  0
 29 30  2  0  0  0  0
 30 25  1  0  0  0  0
  1  2  2  0  0  0  0
 12 31  1  0  0  0  0
M  END
>  <ID_NEW>
CPDMM2020

>  <pIC50>
8.638272163982407

$$$$

  -MTS-   10172316422D 0   0.00000     0.00000     0

 35 38  0  0  1  0  0  0  0  0999 V2000
   -0.2600   -1.0420    0.0000 C   0  0  0  0  0  0  0  0  0  0  0  0
   -0.2610   -1.8650    0.0000 C   0  0  0  0  0  0  0  0  0  0  0  0
    0.4580   -2.2780    0.0000 C   0  0  0  0  0  0  0  0  0  0  0  0
    0.4560   -0.6290    0.0000 C   0  0  0  0  0  0  0  0  0  0  0  0
    1.1670   -1.0380    0.0000 C   0  0  0  0  0  0  0  0  0  0  0  0
    1.1670   -1.8630    0.0000 C   0  0  0  0  0  0  0  0  0  0  0  0
    1.8820   -2.2780    0.0000 C   0  0  0  0  0  0  0  0  0  0  0  0
    2.5980   -1.8650    0.0000 N   0  0  0  0  0  0  0  0  0  0  0  0
    2.5990   -1.0400    0.0000 C   0  0  2  0  0  0  0  0  0  0  0  0
    1.8830   -0.6290    0.0000 C   0  0  0  0  0  0  0  0  0  0  0  0
    3.3200   -0.6260    0.0000 C   0  0  0  0  0  0  0  0  0  0  0  0
    4.0320   -1.0440    0.0000 N   0  0  0  0  0  0  0  0  0  0  0  0
    3.3220    0.1990    0.0000 O   0  0  0  0  0  0  0  0  0  0  0  0
    3.3180   -2.2840    0.0000 S   0  0  0  0  0  0  0  0  0  0  0  0
    3.7390   -1.5650    0.0000 O   0  0  0  0  0  0  0  0  0  0  0  0
    2.8980   -3.0060    0.0000 O   0  0  0  0  0  0  0  0  0  0  0  0
    4.0400   -2.7050    0.0000 C   0  0  0  0  0  0  0  0  0  0  0  0
    4.7600   -2.2930    0.0000 C   0  0  0  0  0  0  0  0  0  0  0  0
    5.4740   -2.7100    0.0000 C   0  0  0  0  0  0  0  0  0  0  0  0
    5.4630   -3.5390    0.0000 C   0  0  0  0  0  0  0  0  0  0  0  0
    6.1760   -3.9520    0.0000 C   0  0  0  0  0  0  0  0  0  0  0  0
    6.9050   -3.5480    0.0000 C   0  0  0  0  0  0  0  0  0  0  0  0
    6.9110   -2.7230    0.0000 C   0  0  0  0  0  0  0  0  0  0  0  0
    6.1930   -2.3010    0.0000 C   0  0  0  0  0  0  0  0  0  0  0  0
    7.6190   -3.9600    0.0000 C   0  0  0  0  0  0  0  0  0  0  0  0
    7.6180   -4.7890    0.0000 C   0  0  0  0  0  0  0  0  0  0  0  0
    8.3320   -5.2010    0.0000 C   0  0  0  0  0  0  0  0  0  0  0  0
    9.0520   -4.7880    0.0000 C   0  0  0  0  0  0  0  0  0  0  0  0
    9.0530   -3.9590    0.0000 C   0  0  0  0  0  0  0  0  0  0  0  0
    8.3340   -3.5460    0.0000 C   0  0  0  0  0  0  0  0  0  0  0  0
    9.7750   -5.2070    0.0000 S   0  0  0  0  0  0  0  0  0  0  0  0
   10.5020   -5.6240    0.0000 C   0  0  0  0  0  0  0  0  0  0  0  0
   10.1930   -4.4810    0.0000 O   0  0  0  0  0  0  0  0  0  0  0  0
    9.3590   -5.9290    0.0000 O   0  0  0  0  0  0  0  0  0  0  0  0
    4.7500   -0.6380    0.0000 O   0  0  0  0  0  0  0  0  0  0  0  0
 14 17  1  0  0  0  0
  5 10  1  0  0  0  0
 17 18  1  0  0  0  0
  6  7  1  0  0  0  0
 18 19  1  0  0  0  0
  7  8  1  0  0  0  0
 19 20  2  0  0  0  0
  8  9  1  0  0  0  0
 20 21  1  0  0  0  0
  9 10  1  0  0  0  0
 21 22  2  0  0  0  0
  5  6  1  0  0  0  0
 22 23  1  0  0  0  0
  9 11  1  6  0  0  0
 23 24  2  0  0  0  0
 24 19  1  0  0  0  0
 22 25  1  0  0  0  0
 11 12  1  0  0  0  0
 25 26  2  0  0  0  0
  2  3  1  0  0  0  0
 26 27  1  0  0  0  0
 11 13  2  0  0  0  0
 27 28  2  0  0  0  0
  3  6  2  0  0  0  0
 28 29  1  0  0  0  0
  8 14  1  0  0  0  0
 29 30  2  0  0  0  0
 30 25  1  0  0  0  0
  1  2  2  0  0  0  0
 28 31  1  0  0  0  0
 14 15  2  0  0  0  0
 31 32  1  0  0  0  0
  5  4  2  0  0  0  0
 31 33  2  0  0  0  0
 14 16  2  0  0  0  0
 31 34  2  0  0  0  0
  4  1  1  0  0  0  0
 12 35  1  0  0  0  0
M  END
>  <ID_NEW>
CPDMM2021

>  <pIC50>
8.638272163982407

$$$$

  SciTegic12180812342D

 30 33  0  0  0  0            999 V2000
   -5.7598    2.6542    0.0000 C   0  0
   -5.7609    1.9144    0.0000 C   0  0
   -5.1253    1.5473    0.0000 C   0  0
   -5.1271    3.0211    0.0000 C   0  0
   -4.4908    2.6579    0.0000 C   0  0
   -4.4874    1.9123    0.0000 C   0  0
   -3.8432    1.5468    0.0000 C   0  0
   -3.2062    1.9182    0.0000 N   0  0
   -3.2097    2.6596    0.0000 C   0  0
   -3.8543    3.0297    0.0000 C   0  0
   -3.8452    0.8093    0.0000 C   0  0
   -4.4779    0.4370    0.0000 N   0  0
   -3.2074    0.4408    0.0000 O   0  0
   -2.5709    1.5542    0.0000 S   0  0
   -1.9417    1.9250    0.0000 C   0  0
   -3.0959    1.0333    0.0000 O   0  0
   -2.0541    1.0333    0.0000 O   0  0
   -1.3000    1.5592    0.0000 C   0  0
   -0.6672    1.9293    0.0000 N   0  0
   -0.6714    2.6639    0.0000 C   0  0
   -1.3143    3.0307    0.0000 C   0  0
   -1.9441    2.6583    0.0000 C   0  0
   -0.0388    3.0355    0.0000 O   0  0
    0.5917    2.6708    0.0000 C   0  0
    0.5883    1.9374    0.0000 C   0  0
    1.2221    1.5728    0.0000 C   0  0
    1.8543    1.9364    0.0000 C   0  0
    1.8523    2.6730    0.0000 C   0  0
    1.2220    3.0339    0.0000 C   0  0
   -4.4718   -0.2971    0.0000 O   0  0
  1  2  2  0
 14 15  1  0
  5  4  2  0
 14 16  2  0
  4  1  1  0
 14 17  2  0
  5 10  1  0
 15 18  2  0
  6  7  1  0
 18 19  1  0
  7  8  1  0
 19 20  2  0
  8  9  1  0
 20 21  1  0
  9 10  1  0
 21 22  2  0
 22 15  1  0
  5  6  1  0
 20 23  1  0
  7 11  1  0
 23 24  1  0
 24 25  2  0
  2  3  1  0
 25 26  1  0
 11 12  1  0
 26 27  2  0
 11 13  2  0
 27 28  1  0
  3  6  2  0
 28 29  2  0
 29 24  1  0
 12 30  1  0
  8 14  1  0
M  END
>  <ID_NEW>
CPDMM2022

>  <pIC50>
8.638272163982407

$$$$

  -MTS-   10172316422D 0   0.00000     0.00000     0

 31 34  0  0  1  0  0  0  0  0999 V2000
   -5.1600    1.1580    0.0000 C   0  0  0  0  0  0  0  0  0  0  0  0
   -5.1610    0.4020    0.0000 C   0  0  0  0  0  0  0  0  0  0  0  0
   -4.5130    0.0260    0.0000 C   0  0  0  0  0  0  0  0  0  0  0  0
   -4.5150    1.5340    0.0000 C   0  0  0  0  0  0  0  0  0  0  0  0
   -3.8620    1.1620    0.0000 C   0  0  0  0  0  0  0  0  0  0  0  0
   -3.8580    0.4000    0.0000 C   0  0  0  0  0  0  0  0  0  0  0  0
   -3.2010    0.0260    0.0000 C   0  0  1  0  0  0  0  0  0  0  0  0
   -2.5480    0.4060    0.0000 N   0  0  0  0  0  0  0  0  0  0  0  0
   -2.5510    1.1640    0.0000 C   0  0  0  0  0  0  0  0  0  0  0  0
   -3.2130    1.5420    0.0000 C   0  0  0  0  0  0  0  0  0  0  0  0
   -3.2030   -0.7280    0.0000 C   0  0  0  0  0  0  0  0  0  0  0  0
   -3.8490   -1.1090    0.0000 N   0  0  0  0  0  0  0  0  0  0  0  0
   -2.5490   -1.1050    0.0000 O   0  0  0  0  0  0  0  0  0  0  0  0
   -1.9000    0.0330    0.0000 S   0  0  0  0  0  0  0  0  0  0  0  0
   -1.2540    0.4120    0.0000 C   0  0  0  0  0  0  0  0  0  0  0  0
   -2.4370   -0.5000    0.0000 O   0  0  0  0  0  0  0  0  0  0  0  0
   -1.3710   -0.5000    0.0000 O   0  0  0  0  0  0  0  0  0  0  0  0
   -0.6000    0.0380    0.0000 C   0  0  0  0  0  0  0  0  0  0  0  0
   -3.8430   -1.8600    0.0000 O   0  0  0  0  0  0  0  0  0  0  0  0
    0.0510    0.4180    0.0000 C   0  0  0  0  0  0  0  0  0  0  0  0
    0.7020    0.0410    0.0000 C   0  0  0  0  0  0  0  0  0  0  0  0
    1.3530    0.4200    0.0000 C   0  0  0  0  0  0  0  0  0  0  0  0
    1.3500    1.1750    0.0000 C   0  0  0  0  0  0  0  0  0  0  0  0
    0.6910    1.5490    0.0000 C   0  0  0  0  0  0  0  0  0  0  0  0
    0.0430    1.1680    0.0000 C   0  0  0  0  0  0  0  0  0  0  0  0
    2.0010    1.5550    0.0000 C   0  0  0  0  0  0  0  0  0  0  0  0
    2.6530    1.1790    0.0000 C   0  0  0  0  0  0  0  0  0  0  0  0
    3.3040    1.5590    0.0000 C   0  0  0  0  0  0  0  0  0  0  0  0
    3.3010    2.3150    0.0000 C   0  0  0  0  0  0  0  0  0  0  0  0
    2.6410    2.6880    0.0000 C   0  0  0  0  0  0  0  0  0  0  0  0
    1.9920    2.3060    0.0000 C   0  0  0  0  0  0  0  0  0  0  0  0
  5  4  2  0  0  0  0
 14 16  2  0  0  0  0
  4  1  1  0  0  0  0
 14 17  2  0  0  0  0
  5 10  1  0  0  0  0
 15 18  1  0  0  0  0
  6  7  1  0  0  0  0
  7  8  1  0  0  0  0
  8  9  1  0  0  0  0
  9 10  1  0  0  0  0
 18 20  1  0  0  0  0
 20 21  2  0  0  0  0
  5  6  1  0  0  0  0
 21 22  1  0  0  0  0
  7 11  1  1  0  0  0
 22 23  2  0  0  0  0
  2  3  1  0  0  0  0
 23 24  1  0  0  0  0
 11 12  1  0  0  0  0
 24 25  2  0  0  0  0
 25 20  1  0  0  0  0
 11 13  2  0  0  0  0
 23 26  1  0  0  0  0
  3  6  2  0  0  0  0
 26 27  2  0  0  0  0
 12 19  1  0  0  0  0
 27 28  1  0  0  0  0
  8 14  1  0  0  0  0
 28 29  2  0  0  0  0
  1  2  2  0  0  0  0
 29 30  1  0  0  0  0
 14 15  1  0  0  0  0
 30 31  2  0  0  0  0
 31 26  1  0  0  0  0
M  END
>  <ID_NEW>
CPDMM2023

>  <pIC50>
8.638272163982407

$$$$

  -MTS-   10172316422D 0   0.00000     0.00000     0

 31 34  0  0  1  0  0  0  0  0999 V2000
   -0.2470   -1.5120    0.0000 C   0  0  0  0  0  0  0  0  0  0  0  0
   -0.2480   -2.3400    0.0000 C   0  0  0  0  0  0  0  0  0  0  0  0
    0.4660   -2.7530    0.0000 C   0  0  0  0  0  0  0  0  0  0  0  0
    0.4650   -1.1000    0.0000 C   0  0  0  0  0  0  0  0  0  0  0  0
    1.1800   -1.5090    0.0000 C   0  0  0  0  0  0  0  0  0  0  0  0
    1.1790   -2.3370    0.0000 C   0  0  0  0  0  0  0  0  0  0  0  0
    1.8920   -2.7500    0.0000 C   0  0  2  0  0  0  0  0  0  0  0  0
    2.6100   -2.3390    0.0000 N   0  0  0  0  0  0  0  0  0  0  0  0
    2.6120   -1.5110    0.0000 C   0  0  0  0  0  0  0  0  0  0  0  0
    1.8940   -1.0930    0.0000 C   0  0  0  0  0  0  0  0  0  0  0  0
    3.3240   -2.7540    0.0000 S   0  0  0  0  0  0  0  0  0  0  0  0
    3.7290   -2.0330    0.0000 O   0  0  0  0  0  0  0  0  0  0  0  0
    2.9040   -3.4620    0.0000 O   0  0  0  0  0  0  0  0  0  0  0  0
    4.0350   -3.1710    0.0000 C   0  0  0  0  0  0  0  0  0  0  0  0
    1.8890   -3.5750    0.0000 C   0  0  0  0  0  0  0  0  0  0  0  0
    2.6030   -3.9900    0.0000 O   0  0  0  0  0  0  0  0  0  0  0  0
    4.0250   -3.9970    0.0000 C   0  0  0  0  0  0  0  0  0  0  0  0
    4.7360   -4.4140    0.0000 C   0  0  0  0  0  0  0  0  0  0  0  0
    5.4540   -4.0060    0.0000 C   0  0  0  0  0  0  0  0  0  0  0  0
    5.4570   -3.1770    0.0000 C   0  0  0  0  0  0  0  0  0  0  0  0
    4.7450   -2.7630    0.0000 C   0  0  0  0  0  0  0  0  0  0  0  0
    6.1670   -4.4220    0.0000 O   0  0  0  0  0  0  0  0  0  0  0  0
    6.8790   -4.0040    0.0000 C   0  0  0  0  0  0  0  0  0  0  0  0
    7.5970   -4.4150    0.0000 C   0  0  0  0  0  0  0  0  0  0  0  0
    8.3090   -3.9980    0.0000 C   0  0  0  0  0  0  0  0  0  0  0  0
    8.3030   -3.1710    0.0000 C   0  0  0  0  0  0  0  0  0  0  0  0
    7.5800   -2.7630    0.0000 C   0  0  0  0  0  0  0  0  0  0  0  0
    6.8710   -3.1830    0.0000 C   0  0  0  0  0  0  0  0  0  0  0  0
    9.0150   -2.7530    0.0000 F   0  0  0  0  0  0  0  0  0  0  0  0
    1.1740   -3.9860    0.0000 N   0  0  0  0  0  0  0  0  0  0  0  0
    1.1670   -4.8080    0.0000 O   0  0  0  0  0  0  0  0  0  0  0  0
  5  4  2  0  0  0  0
  7 15  1  6  0  0  0
  4  1  1  0  0  0  0
  5 10  1  0  0  0  0
 15 16  2  0  0  0  0
  6  7  1  0  0  0  0
 14 17  2  0  0  0  0
  7  8  1  0  0  0  0
 17 18  1  0  0  0  0
  8  9  1  0  0  0  0
 18 19  2  0  0  0  0
  9 10  1  0  0  0  0
 19 20  1  0  0  0  0
  5  6  1  0  0  0  0
 20 21  2  0  0  0  0
 21 14  1  0  0  0  0
 19 22  1  0  0  0  0
  8 11  1  0  0  0  0
 22 23  1  0  0  0  0
  2  3  1  0  0  0  0
 23 24  2  0  0  0  0
 11 12  2  0  0  0  0
 24 25  1  0  0  0  0
  3  6  2  0  0  0  0
 25 26  2  0  0  0  0
 11 13  2  0  0  0  0
 26 27  1  0  0  0  0
  1  2  2  0  0  0  0
 27 28  2  0  0  0  0
 28 23  1  0  0  0  0
 11 14  1  0  0  0  0
 26 29  1  0  0  0  0
 15 30  1  0  0  0  0
 30 31  1  0  0  0  0
M  END
>  <ID_NEW>
CPDMM2024

>  <pIC50>
8.638272163982407

$$$$

  -MTS-   10172316422D 0   0.00000     0.00000     0

 33 36  0  0  1  0  0  0  0  0999 V2000
   -1.3350   -4.2510    0.0000 C   0  0  0  0  0  0  0  0  0  0  0  0
   -1.3140   -5.0060    0.0000 C   0  0  0  0  0  0  0  0  0  0  0  0
   -0.6580   -5.3570    0.0000 C   0  0  0  0  0  0  0  0  0  0  0  0
   -0.6990   -3.8490    0.0000 C   0  0  0  0  0  0  0  0  0  0  0  0
   -0.0410   -4.2120    0.0000 C   0  0  2  0  0  0  0  0  0  0  0  0
   -0.0140   -4.9710    0.0000 C   0  0  1  0  0  0  0  0  0  0  0  0
    0.6400   -5.3190    0.0000 C   0  0  1  0  0  0  0  0  0  0  0  0
    1.2850   -4.9260    0.0000 N   0  0  0  0  0  0  0  0  0  0  0  0
    1.2650   -4.1780    0.0000 C   0  0  0  0  0  0  0  0  0  0  0  0
    0.5990   -3.8190    0.0000 C   0  0  0  0  0  0  0  0  0  0  0  0
    0.6640   -6.0700    0.0000 C   0  0  0  0  0  0  0  0  0  0  0  0
    0.0220   -6.4690    0.0000 N   0  0  0  0  0  0  0  0  0  0  0  0
    1.3240   -6.4260    0.0000 O   0  0  0  0  0  0  0  0  0  0  0  0
    1.9430   -5.2810    0.0000 S   0  0  0  0  0  0  0  0  0  0  0  0
    2.5800   -4.8850    0.0000 C   0  0  0  0  0  0  0  0  0  0  0  0
    1.3010   -5.6760    0.0000 O   0  0  0  0  0  0  0  0  0  0  0  0
    2.3340   -5.9160    0.0000 O   0  0  0  0  0  0  0  0  0  0  0  0
    3.2420   -5.2360    0.0000 C   0  0  0  0  0  0  0  0  0  0  0  0
    3.8780   -4.8410    0.0000 C   0  0  0  0  0  0  0  0  0  0  0  0
    3.8480   -4.0810    0.0000 C   0  0  0  0  0  0  0  0  0  0  0  0
    3.1820   -3.7380    0.0000 C   0  0  0  0  0  0  0  0  0  0  0  0
    2.5540   -4.1380    0.0000 C   0  0  0  0  0  0  0  0  0  0  0  0
    0.0450   -7.2190    0.0000 O   0  0  0  0  0  0  0  0  0  0  0  0
    4.4890   -3.6720    0.0000 O   0  0  0  0  0  0  0  0  0  0  0  0
    5.1640   -4.0240    0.0000 C   0  0  0  0  0  0  0  0  0  0  0  0
    5.1940   -4.7830    0.0000 C   0  0  0  0  0  0  0  0  0  0  0  0
    5.8680   -5.1340    0.0000 C   0  0  0  0  0  0  0  0  0  0  0  0
    6.5110   -4.7260    0.0000 C   0  0  0  0  0  0  0  0  0  0  0  0
    6.4750   -3.9620    0.0000 C   0  0  0  0  0  0  0  0  0  0  0  0
    5.8010   -3.6140    0.0000 C   0  0  0  0  0  0  0  0  0  0  0  0
    7.1870   -5.0760    0.0000 F   0  0  0  0  0  0  0  0  0  0  0  0
    0.0120   -5.9710    0.0000 H   0  0  0  0  0  0  0  0  0  0  0  0
   -0.0640   -3.2130    0.0000 H   0  0  0  0  0  0  0  0  0  0  0  0
 14 17  2  0  0  0  0
  5 10  1  0  0  0  0
 15 18  2  0  0  0  0
  6  7  1  0  0  0  0
 18 19  1  0  0  0  0
  7  8  1  0  0  0  0
 19 20  2  0  0  0  0
  8  9  1  0  0  0  0
 20 21  1  0  0  0  0
  9 10  1  0  0  0  0
 21 22  2  0  0  0  0
 22 15  1  0  0  0  0
  5  6  1  0  0  0  0
  7 11  1  1  0  0  0
  1  2  1  0  0  0  0
 11 12  1  0  0  0  0
 11 13  2  0  0  0  0
  1  4  1  0  0  0  0
 12 23  1  0  0  0  0
 20 24  1  0  0  0  0
 24 25  1  0  0  0  0
  8 14  1  0  0  0  0
 25 26  2  0  0  0  0
  2  3  1  0  0  0  0
 26 27  1  0  0  0  0
 14 15  1  0  0  0  0
 27 28  2  0  0  0  0
  3  6  1  0  0  0  0
 28 29  1  0  0  0  0
 14 16  2  0  0  0  0
 29 30  2  0  0  0  0
 30 25  1  0  0  0  0
  5  4  1  0  0  0  0
 28 31  1  0  0  0  0
  6 32  1  6  0  0  0
  5 33  1  6  0  0  0
M  END
>  <ID_NEW>
CPDMM2025

>  <pIC50>
8.638272163982407

$$$$

  -MTS-   10172316422D 0   0.00000     0.00000     0

 34 37  0  0  1  0  0  0  0  0999 V2000
   -5.2850    2.4220    0.0000 C   0  0  1  0  0  0  0  0  0  0  0  0
   -4.6230    2.8020    0.0000 N   0  0  0  0  0  0  0  0  0  0  0  0
   -4.6300    3.5550    0.0000 C   0  0  0  0  0  0  0  0  0  0  0  0
   -5.2920    3.9340    0.0000 C   0  0  0  0  0  0  0  0  0  0  0  0
   -5.2780    1.6680    0.0000 C   0  0  0  0  0  0  0  0  0  0  0  0
   -5.9280    1.3000    0.0000 N   0  0  0  0  0  0  0  0  0  0  0  0
   -4.6240    1.2990    0.0000 O   0  0  0  0  0  0  0  0  0  0  0  0
   -3.3220    2.0500    0.0000 C   0  0  0  0  0  0  0  0  0  0  0  0
   -3.3230    1.3020    0.0000 C   0  0  0  0  0  0  0  0  0  0  0  0
   -2.6750    0.9220    0.0000 C   0  0  0  0  0  0  0  0  0  0  0  0
   -2.0210    1.3020    0.0000 C   0  0  0  0  0  0  0  0  0  0  0  0
   -2.0240    2.0540    0.0000 C   0  0  0  0  0  0  0  0  0  0  0  0
   -2.6770    2.4290    0.0000 C   0  0  0  0  0  0  0  0  0  0  0  0
   -3.9700    2.4250    0.0000 S   0  0  0  0  0  0  0  0  0  0  0  0
   -3.4420    2.9620    0.0000 O   0  0  0  0  0  0  0  0  0  0  0  0
   -4.5080    1.8960    0.0000 O   0  0  0  0  0  0  0  0  0  0  0  0
   -5.9330    2.7910    0.0000 C   0  0  2  0  0  0  0  0  0  0  0  0
   -5.9440    3.5540    0.0000 C   0  0  1  0  0  0  0  0  0  0  0  0
   -6.6000    3.9300    0.0000 C   0  0  0  0  0  0  0  0  0  0  0  0
   -7.2550    3.5530    0.0000 C   0  0  0  0  0  0  0  0  0  0  0  0
   -7.2570    2.7910    0.0000 C   0  0  0  0  0  0  0  0  0  0  0  0
   -6.5970    2.4060    0.0000 C   0  0  0  0  0  0  0  0  0  0  0  0
   -5.9220    0.5410    0.0000 O   0  0  0  0  0  0  0  0  0  0  0  0
   -1.3660    0.9250    0.0000 O   0  0  0  0  0  0  0  0  0  0  0  0
   -0.7130    1.3050    0.0000 C   0  0  0  0  0  0  0  0  0  0  0  0
   -0.0590    0.9310    0.0000 C   0  0  0  0  0  0  0  0  0  0  0  0
    0.5940    1.3070    0.0000 C   0  0  0  0  0  0  0  0  0  0  0  0
    0.5920    2.0660    0.0000 C   0  0  0  0  0  0  0  0  0  0  0  0
   -0.0700    2.4390    0.0000 C   0  0  0  0  0  0  0  0  0  0  0  0
   -0.7220    2.0570    0.0000 C   0  0  0  0  0  0  0  0  0  0  0  0
    1.2410    2.4490    0.0000 C   0  0  0  0  0  0  0  0  0  0  0  0
    1.8940    2.8310    0.0000 N   0  0  0  0  0  0  0  0  0  0  0  0
   -5.9470    4.5540    0.0000 H   0  0  0  0  0  0  0  0  0  0  0  0
   -5.9290    1.7910    0.0000 H   0  0  0  0  0  0  0  0  0  0  0  0
 18  4  1  0  0  0  0
 17  1  1  0  0  0  0
  1  2  1  0  0  0  0
  2  3  1  0  0  0  0
  3  4  1  0  0  0  0
  1  5  1  1  0  0  0
  5  6  1  0  0  0  0
  5  7  2  0  0  0  0
  2 14  1  0  0  0  0
  8  9  2  0  0  0  0
  9 10  1  0  0  0  0
 10 11  2  0  0  0  0
 11 12  1  0  0  0  0
 12 13  2  0  0  0  0
 13  8  1  0  0  0  0
  8 14  1  0  0  0  0
 14 15  2  0  0  0  0
 14 16  2  0  0  0  0
 17 18  1  0  0  0  0
 17 22  1  0  0  0  0
 18 19  1  0  0  0  0
 19 20  1  0  0  0  0
 20 21  1  0  0  0  0
 21 22  1  0  0  0  0
  6 23  1  0  0  0  0
 11 24  1  0  0  0  0
 24 25  1  0  0  0  0
 25 26  2  0  0  0  0
 26 27  1  0  0  0  0
 27 28  2  0  0  0  0
 28 29  1  0  0  0  0
 29 30  2  0  0  0  0
 30 25  1  0  0  0  0
 31 32  3  0  0  0  0
 28 31  1  0  0  0  0
 18 33  1  6  0  0  0
 17 34  1  6  0  0  0
M  END
>  <ID_NEW>
CPDMM2026

>  <pIC50>
8.638272163982407

$$$$

  -MTS-   10172316422D 0   0.00000     0.00000     0

 36 39  0  0  1  0  0  0  0  0999 V2000
   -0.5060    2.1800    0.0000 C   0  0  0  0  0  0  0  0  0  0  0  0
   -0.1970    0.7820    0.0000 C   0  0  0  0  0  0  0  0  0  0  0  0
    0.6100    0.9610    0.0000 C   0  0  0  0  0  0  0  0  0  0  0  0
    0.8570    1.7540    0.0000 C   0  0  0  0  0  0  0  0  0  0  0  0
    0.2970    2.3590    0.0000 C   0  0  0  0  0  0  0  0  0  0  0  0
   -0.7550    1.3910    0.0000 C   0  0  0  0  0  0  0  0  0  0  0  0
   -1.7540    1.1210    0.0000 S   0  0  0  0  0  0  0  0  0  0  0  0
   -5.5830    2.2920    0.0000 C   0  0  0  0  0  0  0  0  0  0  0  0
   -5.5830    1.4670    0.0000 C   0  0  0  0  0  0  0  0  0  0  0  0
   -4.8710    1.0580    0.0000 C   0  0  0  0  0  0  0  0  0  0  0  0
   -4.8710    2.7080    0.0000 C   0  0  0  0  0  0  0  0  0  0  0  0
   -4.1590    2.2920    0.0000 C   0  0  2  0  0  0  0  0  0  0  0  0
   -4.1630    1.4670    0.0000 C   0  0  1  0  0  0  0  0  0  0  0  0
   -3.4540    1.0530    0.0000 C   0  0  1  0  0  0  0  0  0  0  0  0
   -2.7370    1.4610    0.0000 N   0  0  0  0  0  0  0  0  0  0  0  0
   -2.7340    2.2860    0.0000 C   0  0  0  0  0  0  0  0  0  0  0  0
   -3.4470    2.7030    0.0000 C   0  0  0  0  0  0  0  0  0  0  0  0
   -3.4570    0.2270    0.0000 C   0  0  0  0  0  0  0  0  0  0  0  0
   -4.1740   -0.1820    0.0000 N   0  0  0  0  0  0  0  0  0  0  0  0
   -2.7450   -0.1900    0.0000 O   0  0  0  0  0  0  0  0  0  0  0  0
   -2.4920    0.3920    0.0000 O   0  0  0  0  0  0  0  0  0  0  0  0
   -1.2420    0.2210    0.0000 O   0  0  0  0  0  0  0  0  0  0  0  0
    1.6500    1.9750    0.0000 O   0  0  0  0  0  0  0  0  0  0  0  0
    2.4460    2.1920    0.0000 C   0  0  0  0  0  0  0  0  0  0  0  0
    2.9930    1.5730    0.0000 C   0  0  0  0  0  0  0  0  0  0  0  0
    3.7990    1.7400    0.0000 C   0  0  0  0  0  0  0  0  0  0  0  0
    3.5060    3.1400    0.0000 C   0  0  0  0  0  0  0  0  0  0  0  0
    2.7010    2.9710    0.0000 C   0  0  0  0  0  0  0  0  0  0  0  0
    4.8570    2.7450    0.0000 S   0  0  0  0  0  0  0  0  0  0  0  0
    5.0700    1.9540    0.0000 O   0  0  0  0  0  0  0  0  0  0  0  0
    4.6350    3.5460    0.0000 O   0  0  0  0  0  0  0  0  0  0  0  0
    5.6550    2.9540    0.0000 C   0  0  0  0  0  0  0  0  0  0  0  0
    4.0590    2.5230    0.0000 C   0  0  0  0  0  0  0  0  0  0  0  0
   -4.1790   -1.0040    0.0000 O   0  0  0  0  0  0  0  0  0  0  0  0
   -4.1650    0.4670    0.0000 H   0  0  0  0  0  0  0  0  0  0  0  0
   -4.1570    3.2920    0.0000 H   0  0  0  0  0  0  0  0  0  0  0  0
  2  3  2  0  0  0  0
  3  4  1  0  0  0  0
  4  5  2  0  0  0  0
  5  1  1  0  0  0  0
  8  9  1  0  0  0  0
  8 11  1  0  0  0  0
  9 10  1  0  0  0  0
 10 13  1  0  0  0  0
 12 11  1  0  0  0  0
 12 13  1  0  0  0  0
 12 17  1  0  0  0  0
 13 14  1  0  0  0  0
 14 15  1  0  0  0  0
 15 16  1  0  0  0  0
 16 17  1  0  0  0  0
 15  7  1  0  0  0  0
 18 19  1  0  0  0  0
 18 20  2  0  0  0  0
 14 18  1  1  0  0  0
  7  6  1  0  0  0  0
  7 21  2  0  0  0  0
  7 22  2  0  0  0  0
  4 23  1  0  0  0  0
 23 24  1  0  0  0  0
 24 25  2  0  0  0  0
 25 26  1  0  0  0  0
 26 33  2  0  0  0  0
 33 27  1  0  0  0  0
 27 28  2  0  0  0  0
 28 24  1  0  0  0  0
 33 29  1  0  0  0  0
 29 30  2  0  0  0  0
 29 31  2  0  0  0  0
 29 32  1  0  0  0  0
 19 34  1  0  0  0  0
  1  6  2  0  0  0  0
  6  2  1  0  0  0  0
 13 35  1  6  0  0  0
 12 36  1  6  0  0  0
M  END
>  <ID_NEW>
CPDMM2027

>  <pIC50>
8.629716346051794

$$$$

  -MTS-   10172316422D 0   0.00000     0.00000     0

 36 39  0  0  1  0  0  0  0  0999 V2000
   -4.4010    3.3870    0.0000 C   0  0  0  0  0  0  0  0  0  0  0  0
   -4.4030    2.5600    0.0000 C   0  0  0  0  0  0  0  0  0  0  0  0
   -3.6880    2.1470    0.0000 C   0  0  0  0  0  0  0  0  0  0  0  0
   -3.6900    3.8000    0.0000 C   0  0  0  0  0  0  0  0  0  0  0  0
   -2.9740    3.3910    0.0000 C   0  0  0  0  0  0  0  0  0  0  0  0
   -2.9710    2.5580    0.0000 C   0  0  0  0  0  0  0  0  0  0  0  0
   -2.2520    2.1470    0.0000 C   0  0  1  0  0  0  0  0  0  0  0  0
   -1.5310    2.5640    0.0000 N   0  0  0  0  0  0  0  0  0  0  0  0
   -1.5350    3.3970    0.0000 C   0  0  0  0  0  0  0  0  0  0  0  0
   -2.2580    3.8130    0.0000 C   0  0  0  0  0  0  0  0  0  0  0  0
   -5.1160    3.8000    0.0000 O   0  0  0  0  0  0  0  0  0  0  0  0
   -5.8300    3.3870    0.0000 C   0  0  0  0  0  0  0  0  0  0  0  0
   -2.2490    1.3220    0.0000 C   0  0  0  0  0  0  0  0  0  0  0  0
   -2.9610    0.9040    0.0000 N   0  0  0  0  0  0  0  0  0  0  0  0
   -1.5320    0.9070    0.0000 O   0  0  0  0  0  0  0  0  0  0  0  0
   -0.8160    2.1530    0.0000 S   0  0  0  0  0  0  0  0  0  0  0  0
   -0.4710    2.9030    0.0000 O   0  0  0  0  0  0  0  0  0  0  0  0
   -1.1680    1.4070    0.0000 O   0  0  0  0  0  0  0  0  0  0  0  0
    0.6140    2.2440    0.0000 C   0  0  0  0  0  0  0  0  0  0  0  0
   -0.0750    1.7860    0.0000 C   0  0  0  0  0  0  0  0  0  0  0  0
   -0.0230    0.9620    0.0000 C   0  0  0  0  0  0  0  0  0  0  0  0
    0.7180    0.5950    0.0000 C   0  0  0  0  0  0  0  0  0  0  0  0
    1.4080    1.0570    0.0000 C   0  0  0  0  0  0  0  0  0  0  0  0
    1.3520    1.8800    0.0000 C   0  0  0  0  0  0  0  0  0  0  0  0
    2.1490    0.6940    0.0000 O   0  0  0  0  0  0  0  0  0  0  0  0
    2.9260    0.9750    0.0000 C   0  0  0  0  0  0  0  0  0  0  0  0
    3.5580    0.4400    0.0000 C   0  0  0  0  0  0  0  0  0  0  0  0
    4.3360    0.7210    0.0000 C   0  0  0  0  0  0  0  0  0  0  0  0
    4.4810    1.5360    0.0000 C   0  0  0  0  0  0  0  0  0  0  0  0
    3.8440    2.0700    0.0000 C   0  0  0  0  0  0  0  0  0  0  0  0
    3.0690    1.7860    0.0000 C   0  0  0  0  0  0  0  0  0  0  0  0
    5.2570    1.8180    0.0000 S   0  0  0  0  0  0  0  0  0  0  0  0
    6.0270    2.1020    0.0000 C   0  0  0  0  0  0  0  0  0  0  0  0
    5.6620    1.1080    0.0000 O   0  0  0  0  0  0  0  0  0  0  0  0
    4.8370    2.5370    0.0000 O   0  0  0  0  0  0  0  0  0  0  0  0
   -2.9670    0.0790    0.0000 O   0  0  0  0  0  0  0  0  0  0  0  0
  1  2  2  0  0  0  0
  2  3  1  0  0  0  0
  3  6  2  0  0  0  0
  5  4  2  0  0  0  0
  4  1  1  0  0  0  0
  5  6  1  0  0  0  0
  5 10  1  0  0  0  0
  6  7  1  0  0  0  0
  7  8  1  0  0  0  0
  8  9  1  0  0  0  0
  9 10  1  0  0  0  0
  1 11  1  0  0  0  0
 11 12  1  0  0  0  0
  7 13  1  1  0  0  0
 13 14  1  0  0  0  0
 13 15  2  0  0  0  0
  8 16  1  0  0  0  0
 16 17  2  0  0  0  0
 16 18  2  0  0  0  0
 19 20  2  0  0  0  0
 20 21  1  0  0  0  0
 21 22  2  0  0  0  0
 22 23  1  0  0  0  0
 23 24  2  0  0  0  0
 24 19  1  0  0  0  0
 23 25  1  0  0  0  0
 25 26  1  0  0  0  0
 26 27  2  0  0  0  0
 27 28  1  0  0  0  0
 28 29  2  0  0  0  0
 29 30  1  0  0  0  0
 30 31  2  0  0  0  0
 31 26  1  0  0  0  0
 29 32  1  0  0  0  0
 32 33  1  0  0  0  0
 20 16  1  0  0  0  0
 32 34  2  0  0  0  0
 32 35  2  0  0  0  0
 14 36  1  0  0  0  0
M  END
>  <ID_NEW>
CPDMM2028

>  <pIC50>
8.60906489289662

$$$$

  -MTS-   10172316422D 0   0.00000     0.00000     0

 32 35  0  0  1  0  0  0  0  0999 V2000
   -2.0370   -1.7420    0.0000 C   0  0  0  0  0  0  0  0  0  0  0  0
   -2.2280   -2.4780    0.0000 C   0  0  0  0  0  0  0  0  0  0  0  0
   -1.6920   -3.0020    0.0000 C   0  0  0  0  0  0  0  0  0  0  0  0
   -1.3100   -1.5350    0.0000 C   0  0  0  0  0  0  0  0  0  0  0  0
   -0.7760   -2.0710    0.0000 C   0  0  2  0  0  0  0  0  0  0  0  0
   -0.9610   -2.8070    0.0000 C   0  0  1  0  0  0  0  0  0  0  0  0
   -0.4300   -3.3280    0.0000 C   0  0  1  0  0  0  0  0  0  0  0  0
    0.3020   -3.1310    0.0000 N   0  0  0  0  0  0  0  0  0  0  0  0
    0.4920   -2.4030    0.0000 C   0  0  0  0  0  0  0  0  0  0  0  0
   -0.0470   -1.8680    0.0000 C   0  0  0  0  0  0  0  0  0  0  0  0
   -0.6170   -4.0600    0.0000 C   0  0  0  0  0  0  0  0  0  0  0  0
   -1.3490   -4.2640    0.0000 N   0  0  0  0  0  0  0  0  0  0  0  0
   -0.0790   -4.5900    0.0000 O   0  0  0  0  0  0  0  0  0  0  0  0
    0.8400   -3.6600    0.0000 S   0  0  0  0  0  0  0  0  0  0  0  0
    1.5660   -3.4530    0.0000 C   0  0  0  0  0  0  0  0  0  0  0  0
    0.1080   -3.8590    0.0000 O   0  0  0  0  0  0  0  0  0  0  0  0
    1.0370   -4.3820    0.0000 O   0  0  0  0  0  0  0  0  0  0  0  0
    2.1080   -3.9790    0.0000 C   0  0  0  0  0  0  0  0  0  0  0  0
    2.8330   -3.7770    0.0000 C   0  0  0  0  0  0  0  0  0  0  0  0
    3.0160   -3.0350    0.0000 C   0  0  0  0  0  0  0  0  0  0  0  0
    2.4680   -2.5150    0.0000 C   0  0  0  0  0  0  0  0  0  0  0  0
    1.7500   -2.7240    0.0000 C   0  0  0  0  0  0  0  0  0  0  0  0
    3.7460   -2.8280    0.0000 C   0  0  0  0  0  0  0  0  0  0  0  0
    4.2910   -3.3620    0.0000 C   0  0  0  0  0  0  0  0  0  0  0  0
    5.0160   -3.1510    0.0000 C   0  0  0  0  0  0  0  0  0  0  0  0
    5.2030   -2.4120    0.0000 C   0  0  0  0  0  0  0  0  0  0  0  0
    4.6500   -1.8890    0.0000 C   0  0  0  0  0  0  0  0  0  0  0  0
    3.9260   -2.1030    0.0000 C   0  0  0  0  0  0  0  0  0  0  0  0
    5.9240   -2.2030    0.0000 Cl  0  0  0  0  0  0  0  0  0  0  0  0
   -1.5360   -4.9950    0.0000 O   0  0  0  0  0  0  0  0  0  0  0  0
   -1.2160   -3.7750    0.0000 H   0  0  0  0  0  0  0  0  0  0  0  0
   -0.5210   -1.1040    0.0000 H   0  0  0  0  0  0  0  0  0  0  0  0
  8 14  1  0  0  0  0
  2  3  1  0  0  0  0
 14 15  1  0  0  0  0
  3  6  1  0  0  0  0
 14 16  2  0  0  0  0
  5  4  1  0  0  0  0
 14 17  2  0  0  0  0
  5 10  1  0  0  0  0
 15 18  2  0  0  0  0
  6  7  1  0  0  0  0
 18 19  1  0  0  0  0
  7  8  1  0  0  0  0
 19 20  2  0  0  0  0
  8  9  1  0  0  0  0
 20 21  1  0  0  0  0
  9 10  1  0  0  0  0
 21 22  2  0  0  0  0
 22 15  1  0  0  0  0
  5  6  1  0  0  0  0
 20 23  1  0  0  0  0
  7 11  1  1  0  0  0
 23 24  2  0  0  0  0
 24 25  1  0  0  0  0
  1  2  1  0  0  0  0
 25 26  2  0  0  0  0
 11 12  1  0  0  0  0
 26 27  1  0  0  0  0
 11 13  2  0  0  0  0
 27 28  2  0  0  0  0
 28 23  1  0  0  0  0
  1  4  1  0  0  0  0
 26 29  1  0  0  0  0
 12 30  1  0  0  0  0
  6 31  1  6  0  0  0
  5 32  1  6  0  0  0
M  END
>  <ID_NEW>
CPDMM2029

>  <pIC50>
8.605209643917787

$$$$

  -MTS-   10172316422D 0   0.00000     0.00000     0

 35 38  0  0  1  0  0  0  0  0999 V2000
   -0.2310   -0.8750    0.0000 C   0  0  0  0  0  0  0  0  0  0  0  0
   -0.2320   -1.6980    0.0000 C   0  0  0  0  0  0  0  0  0  0  0  0
    0.4870   -2.1110    0.0000 C   0  0  0  0  0  0  0  0  0  0  0  0
    0.4850   -0.4620    0.0000 C   0  0  0  0  0  0  0  0  0  0  0  0
    1.1970   -0.8710    0.0000 C   0  0  0  0  0  0  0  0  0  0  0  0
    1.1960   -1.6960    0.0000 C   0  0  0  0  0  0  0  0  0  0  0  0
    1.9110   -2.1110    0.0000 C   0  0  0  0  0  0  0  0  0  0  0  0
    2.6270   -1.6980    0.0000 N   0  0  0  0  0  0  0  0  0  0  0  0
    2.6280   -0.8740    0.0000 C   0  0  2  0  0  0  0  0  0  0  0  0
    1.9120   -0.4620    0.0000 C   0  0  0  0  0  0  0  0  0  0  0  0
    3.3490   -0.4590    0.0000 C   0  0  0  0  0  0  0  0  0  0  0  0
    4.0610   -0.8780    0.0000 N   0  0  0  0  0  0  0  0  0  0  0  0
    3.3510    0.3660    0.0000 O   0  0  0  0  0  0  0  0  0  0  0  0
    3.3470   -2.1170    0.0000 S   0  0  0  0  0  0  0  0  0  0  0  0
    3.7690   -1.3990    0.0000 O   0  0  0  0  0  0  0  0  0  0  0  0
    2.9280   -2.8400    0.0000 O   0  0  0  0  0  0  0  0  0  0  0  0
    4.0610   -2.5300    0.0000 C   0  0  0  0  0  0  0  0  0  0  0  0
    4.0600   -3.3550    0.0000 C   0  0  0  0  0  0  0  0  0  0  0  0
    4.7740   -3.7690    0.0000 C   0  0  0  0  0  0  0  0  0  0  0  0
    4.7710   -4.5930    0.0000 C   0  0  0  0  0  0  0  0  0  0  0  0
    5.4850   -5.0060    0.0000 C   0  0  0  0  0  0  0  0  0  0  0  0
    6.2000   -4.5940    0.0000 C   0  0  0  0  0  0  0  0  0  0  0  0
    6.1990   -3.7650    0.0000 C   0  0  0  0  0  0  0  0  0  0  0  0
    5.4850   -3.3550    0.0000 C   0  0  0  0  0  0  0  0  0  0  0  0
    6.9150   -5.0060    0.0000 C   0  0  0  0  0  0  0  0  0  0  0  0
    6.9100   -5.8300    0.0000 C   0  0  0  0  0  0  0  0  0  0  0  0
    7.6240   -6.2420    0.0000 C   0  0  0  0  0  0  0  0  0  0  0  0
    8.3390   -5.8290    0.0000 C   0  0  0  0  0  0  0  0  0  0  0  0
    8.3360   -5.0000    0.0000 C   0  0  0  0  0  0  0  0  0  0  0  0
    7.6220   -4.5920    0.0000 C   0  0  0  0  0  0  0  0  0  0  0  0
    9.0490   -4.5850    0.0000 N   0  0  0  0  0  0  0  0  0  0  0  0
    9.7650   -4.9950    0.0000 C   0  0  0  0  0  0  0  0  0  0  0  0
    9.7680   -5.8200    0.0000 O   0  0  0  0  0  0  0  0  0  0  0  0
   10.4780   -4.5790    0.0000 C   0  0  0  0  0  0  0  0  0  0  0  0
    4.7790   -0.4710    0.0000 O   0  0  0  0  0  0  0  0  0  0  0  0
 14 17  1  0  0  0  0
  5 10  1  0  0  0  0
 17 18  1  0  0  0  0
  6  7  1  0  0  0  0
 18 19  1  0  0  0  0
  7  8  1  0  0  0  0
 19 20  2  0  0  0  0
  8  9  1  0  0  0  0
 20 21  1  0  0  0  0
  9 10  1  0  0  0  0
 21 22  2  0  0  0  0
  5  6  1  0  0  0  0
 22 23  1  0  0  0  0
  9 11  1  6  0  0  0
 23 24  2  0  0  0  0
 24 19  1  0  0  0  0
 22 25  1  0  0  0  0
 11 12  1  0  0  0  0
 25 26  2  0  0  0  0
  2  3  1  0  0  0  0
 26 27  1  0  0  0  0
 11 13  2  0  0  0  0
 27 28  2  0  0  0  0
  3  6  2  0  0  0  0
 28 29  1  0  0  0  0
  8 14  1  0  0  0  0
 29 30  2  0  0  0  0
 30 25  1  0  0  0  0
  1  2  2  0  0  0  0
 29 31  1  0  0  0  0
 14 15  2  0  0  0  0
 31 32  1  0  0  0  0
  5  4  2  0  0  0  0
 32 33  2  0  0  0  0
 14 16  2  0  0  0  0
 32 34  1  0  0  0  0
  4  1  1  0  0  0  0
 12 35  1  0  0  0  0
M  END
>  <ID_NEW>
CPDMM2030

>  <pIC50>
8.604848408495457

$$$$

  SciTegic12180812342D

 31 34  0  0  0  0            999 V2000
   -5.6347    1.7458    0.0000 C   0  0
   -5.6359    1.0644    0.0000 C   0  0
   -5.0503    0.7223    0.0000 C   0  0
   -5.0521    2.0836    0.0000 C   0  0
   -4.4617    1.7495    0.0000 C   0  0
   -4.4583    1.0623    0.0000 C   0  0
   -3.8641    0.7218    0.0000 C   0  0
   -3.2728    1.0682    0.0000 N   0  0
   -3.2762    1.7554    0.0000 C   0  0
   -3.8709    2.0963    0.0000 C   0  0
   -3.8618    0.0426    0.0000 C   0  0
   -2.6822    0.7284    0.0000 S   0  0
   -2.0981    1.0721    0.0000 C   0  0
   -1.5075    0.7365    0.0000 C   0  0
   -0.9191    1.0760    0.0000 C   0  0
   -3.0249    0.1417    0.0000 O   0  0
   -2.2041    0.2500    0.0000 O   0  0
   -4.4488   -0.3005    0.0000 N   0  0
   -3.2739   -0.2967    0.0000 O   0  0
   -0.3326    0.7334    0.0000 C   0  0
    0.2552    1.0764    0.0000 C   0  0
    0.2534    1.7564    0.0000 C   0  0
   -0.3380    2.0959    0.0000 C   0  0
   -0.9271    1.7506    0.0000 C   0  0
    0.8412    2.0968    0.0000 C   0  0
    1.4294    1.7612    0.0000 C   0  0
    2.0125    2.1009    0.0000 C   0  0
    2.0096    2.7810    0.0000 C   0  0
    1.4176    3.1196    0.0000 C   0  0
    0.8333    2.7775    0.0000 C   0  0
   -4.4451   -0.9804    0.0000 O   0  0
  1  2  2  0
 14 15  1  0
  5  4  2  0
 12 16  2  0
  4  1  1  0
 12 17  2  0
  5 10  1  0
  6  7  1  0
 11 18  1  0
 11 19  2  0
  7  8  1  0
 15 20  2  0
  8  9  1  0
 20 21  1  0
  9 10  1  0
 21 22  2  0
  5  6  1  0
 22 23  1  0
  7 11  1  0
 23 24  2  0
 24 15  1  0
 22 25  1  0
  8 12  1  0
 25 26  2  0
  2  3  1  0
 26 27  1  0
 12 13  1  0
 27 28  2  0
  3  6  2  0
 28 29  1  0
 13 14  1  0
 29 30  2  0
 30 25  1  0
 18 31  1  0
M  END
>  <ID_NEW>
CPDMM2031

>  <pIC50>
8.60205999132796

$$$$

  SciTegic12180812562D

 32 35  0  0  0  0            999 V2000
    3.0444   -3.1541    0.0000 C   0  0
    3.0432   -3.9065    0.0000 C   0  0
    3.6914   -4.2819    0.0000 C   0  0
    3.6896   -2.7789    0.0000 C   0  0
    4.3383   -3.1505    0.0000 C   0  0
    4.3417   -3.9086    0.0000 C   0  0
    4.9984   -4.2824    0.0000 C   0  0
    5.6521   -3.9027    0.0000 N   0  0
    5.6487   -3.1488    0.0000 C   0  0
    4.9916   -2.7704    0.0000 C   0  0
    5.0007   -5.0324    0.0000 C   0  0
    4.3498   -5.4093    0.0000 O   0  0
    5.6495   -5.4054    0.0000 N   0  0
    5.6518   -6.1554    0.0000 O   0  0
    6.3011   -4.2757    0.0000 S   0  0
    6.3033   -5.0257    0.0000 O   0  0
    6.9519   -3.9030    0.0000 C   0  0
    5.7734   -4.8107    0.0000 O   0  0
    7.5969   -4.2750    0.0000 C   0  0
    8.2472   -3.9029    0.0000 C   0  0
    8.2454   -3.1520    0.0000 C   0  0
    7.5915   -2.7791    0.0000 C   0  0
    6.9441   -3.1536    0.0000 C   0  0
    8.8915   -2.7741    0.0000 O   0  0
    9.5452   -3.1462    0.0000 C   0  0
    9.5464   -3.8969    0.0000 C   0  0
   10.1951   -4.2690    0.0000 C   0  0
   10.8421   -3.8910    0.0000 N   0  0
   10.8403   -3.1368    0.0000 C   0  0
   10.1870   -2.7685    0.0000 C   0  0
    3.6899   -5.0309    0.0000 F   0  0
    3.6871   -2.0313    0.0000 C   0  0
 15 16  2  0
  6  7  1  0
 15 17  1  0
  7  8  1  0
 15 18  2  0
  8  9  1  0
 17 19  2  0
  9 10  1  0
 19 20  1  0
  5  6  1  0
 20 21  2  0
 21 22  1  0
 22 23  2  0
 23 17  1  0
 21 24  1  0
  2  3  1  0
 24 25  1  0
  7 11  1  0
 25 26  2  0
  3  6  2  0
 26 27  1  0
 11 12  2  0
 27 28  2  0
  1  2  2  0
 28 29  1  0
 11 13  1  0
 29 30  2  0
 30 25  1  0
  5  4  2  0
 13 14  1  0
  4  1  1  0
  8 15  1  0
  5 10  1  0
  3 31  1  0
  4 32  1  0
M  END
>  <ID_NEW>
CPDMM2032

>  <pIC50>
8.58502665202918

$$$$

  SciTegic12180812562D

 33 36  0  0  0  0            999 V2000
    3.1277   -3.8333    0.0000 C   0  0
    3.1266   -4.5856    0.0000 C   0  0
    3.7789   -4.9610    0.0000 C   0  0
    3.7771   -3.4580    0.0000 C   0  0
    4.4258   -3.8296    0.0000 C   0  0
    4.4292   -4.5877    0.0000 C   0  0
    5.0818   -4.9615    0.0000 C   0  0
    5.7397   -4.5818    0.0000 N   0  0
    5.7362   -3.8279    0.0000 C   0  0
    5.0790   -3.4495    0.0000 C   0  0
    5.0840   -5.7115    0.0000 C   0  0
    4.4373   -6.0884    0.0000 O   0  0
    5.7371   -6.0846    0.0000 N   0  0
    5.7394   -6.8345    0.0000 O   0  0
    6.3886   -4.9549    0.0000 S   0  0
    6.3908   -5.7048    0.0000 O   0  0
    7.0352   -4.5821    0.0000 C   0  0
    5.8610   -5.4898    0.0000 O   0  0
    7.6843   -4.9583    0.0000 C   0  0
    8.3306   -4.5820    0.0000 C   0  0
    8.3288   -3.8312    0.0000 C   0  0
    7.6748   -3.4583    0.0000 C   0  0
    7.0316   -3.8327    0.0000 C   0  0
    8.9791   -3.4533    0.0000 O   0  0
    9.6285   -3.8254    0.0000 C   0  0
    9.6297   -4.5761    0.0000 C   0  0
   10.2825   -4.9481    0.0000 C   0  0
   10.9296   -4.5702    0.0000 C   0  0
   10.9236   -3.8159    0.0000 C   0  0
   10.2744   -3.4476    0.0000 C   0  0
   11.5797   -4.9413    0.0000 Cl  0  0
    3.7785   -5.7136    0.0000 F   0  0
    3.7757   -2.7080    0.0000 C   0  0
  4  1  1  0
  8 15  1  0
  5 10  1  0
 15 16  2  0
  6  7  1  0
 15 17  1  0
  7  8  1  0
 15 18  2  0
  8  9  1  0
 17 19  2  0
  9 10  1  0
 19 20  1  0
  5  6  1  0
 20 21  2  0
 21 22  1  0
 22 23  2  0
 23 17  1  0
 21 24  1  0
  2  3  1  0
 24 25  1  0
  7 11  1  0
 25 26  2  0
  3  6  2  0
 26 27  1  0
 11 12  2  0
 27 28  2  0
  1  2  2  0
 28 29  1  0
 11 13  1  0
 29 30  2  0
 30 25  1  0
  5  4  2  0
 28 31  1  0
  3 32  1  0
 13 14  1  0
  4 33  1  0
M  END
>  <ID_NEW>
CPDMM2033

>  <pIC50>
8.58502665202918

$$$$

  -MTS-   10172316422D 0   0.00000     0.00000     0

 36 39  0  0  1  0  0  0  0  0999 V2000
   -5.3670    1.4010    0.0000 C   0  0  0  0  0  0  0  0  0  0  0  0
   -5.3640    2.6910    0.0000 O   0  0  0  0  0  0  0  0  0  0  0  0
   -5.8320    2.0470    0.0000 C   0  0  0  0  0  0  0  0  0  0  0  0
   -4.6090    2.4380    0.0000 C   0  0  2  0  0  0  0  0  0  0  0  0
   -4.6100    1.6460    0.0000 C   0  0  1  0  0  0  0  0  0  0  0  0
   -3.9260    1.2460    0.0000 C   0  0  1  0  0  0  0  0  0  0  0  0
   -3.2370    1.6380    0.0000 N   0  0  0  0  0  0  0  0  0  0  0  0
   -3.2320    2.4340    0.0000 C   0  0  0  0  0  0  0  0  0  0  0  0
   -3.9200    2.8340    0.0000 C   0  0  0  0  0  0  0  0  0  0  0  0
   -3.9270    0.4580    0.0000 C   0  0  0  0  0  0  0  0  0  0  0  0
   -3.2420    0.0580    0.0000 N   0  0  0  0  0  0  0  0  0  0  0  0
   -4.6150    0.0620    0.0000 O   0  0  0  0  0  0  0  0  0  0  0  0
   -1.2200    1.5940    0.0000 C   0  0  0  0  0  0  0  0  0  0  0  0
   -1.9890    1.8010    0.0000 C   0  0  0  0  0  0  0  0  0  0  0  0
   -2.1890    2.5680    0.0000 C   0  0  0  0  0  0  0  0  0  0  0  0
   -1.6290    3.1280    0.0000 C   0  0  0  0  0  0  0  0  0  0  0  0
   -0.8610    2.9250    0.0000 C   0  0  0  0  0  0  0  0  0  0  0  0
   -0.6560    2.1580    0.0000 C   0  0  0  0  0  0  0  0  0  0  0  0
   -2.5490    1.2420    0.0000 S   0  0  0  0  0  0  0  0  0  0  0  0
   -3.0090    0.5990    0.0000 O   0  0  0  0  0  0  0  0  0  0  0  0
   -1.9440    0.7360    0.0000 O   0  0  0  0  0  0  0  0  0  0  0  0
   -0.2960    3.4800    0.0000 O   0  0  0  0  0  0  0  0  0  0  0  0
    0.4680    3.2730    0.0000 C   0  0  0  0  0  0  0  0  0  0  0  0
    1.0320    3.8320    0.0000 C   0  0  0  0  0  0  0  0  0  0  0  0
    1.7960    3.6250    0.0000 C   0  0  0  0  0  0  0  0  0  0  0  0
    2.0000    2.8540    0.0000 C   0  0  0  0  0  0  0  0  0  0  0  0
    1.4360    2.2990    0.0000 C   0  0  0  0  0  0  0  0  0  0  0  0
    0.6720    2.5060    0.0000 C   0  0  0  0  0  0  0  0  0  0  0  0
    2.7650    2.6470    0.0000 O   0  0  0  0  0  0  0  0  0  0  0  0
   -3.2460   -0.7330    0.0000 O   0  0  0  0  0  0  0  0  0  0  0  0
    3.1620    1.9670    0.0000 C   0  0  0  0  0  0  0  0  0  0  0  0
    3.5180    1.3440    0.0000 F   0  0  0  0  0  0  0  0  0  0  0  0
    2.8640    1.1940    0.0000 F   0  0  0  0  0  0  0  0  0  0  0  0
    3.9720    1.8320    0.0000 F   0  0  0  0  0  0  0  0  0  0  0  0
   -4.7180    0.6520    0.0000 H   0  0  0  0  0  0  0  0  0  0  0  0
   -4.7080    3.4330    0.0000 H   0  0  0  0  0  0  0  0  0  0  0  0
  6 10  1  1  0  0  0
 10 11  1  0  0  0  0
 10 12  2  0  0  0  0
  1  5  1  0  0  0  0
  4  2  1  0  0  0  0
  2  3  1  0  0  0  0
  3  1  1  0  0  0  0
  4  9  1  0  0  0  0
  5  6  1  0  0  0  0
  6  7  1  0  0  0  0
  7  8  1  0  0  0  0
  8  9  1  0  0  0  0
  4  5  1  0  0  0  0
 19 21  2  0  0  0  0
 16 17  1  0  0  0  0
 17 22  1  0  0  0  0
 14 15  1  0  0  0  0
 22 23  1  0  0  0  0
 17 18  2  0  0  0  0
 23 24  2  0  0  0  0
 18 13  1  0  0  0  0
 24 25  1  0  0  0  0
 13 14  2  0  0  0  0
 25 26  2  0  0  0  0
 14 19  1  0  0  0  0
 26 27  1  0  0  0  0
 15 16  2  0  0  0  0
 27 28  2  0  0  0  0
 28 23  1  0  0  0  0
 26 29  1  0  0  0  0
 19 20  2  0  0  0  0
  7 19  1  0  0  0  0
 11 30  1  0  0  0  0
 29 31  1  0  0  0  0
 31 32  1  0  0  0  0
 31 33  1  0  0  0  0
 31 34  1  0  0  0  0
  5 35  1  6  0  0  0
  4 36  1  6  0  0  0
M  END
>  <ID_NEW>
CPDMM2034

>  <pIC50>
8.572428879910463

$$$$

  -MTS-   10172316422D 0   0.00000     0.00000     0

 34 37  0  0  0  0  0  0  0  0999 V2000
   -5.8330    2.9710    0.0000 C   0  0  0  0  0  0  0  0  0  0  0  0
   -5.8330    2.1420    0.0000 C   0  0  0  0  0  0  0  0  0  0  0  0
   -5.1170    1.7330    0.0000 C   0  0  0  0  0  0  0  0  0  0  0  0
   -5.1170    3.3870    0.0000 C   0  0  0  0  0  0  0  0  0  0  0  0
   -4.4050    2.9710    0.0000 C   0  0  1  0  0  0  0  0  0  0  0  0
   -4.4040    2.1420    0.0000 C   0  0  2  0  0  0  0  0  0  0  0  0
   -3.6930    1.7320    0.0000 C   0  0  0  0  0  0  0  0  0  0  0  0
   -2.9740    2.1430    0.0000 N   0  0  0  0  0  0  0  0  0  0  0  0
   -2.9750    2.9730    0.0000 C   0  0  0  0  0  0  0  0  0  0  0  0
   -3.6950    3.3870    0.0000 C   0  0  0  0  0  0  0  0  0  0  0  0
   -3.6930    0.9030    0.0000 C   0  0  0  0  0  0  0  0  0  0  0  0
   -4.4070    0.4890    0.0000 N   0  0  0  0  0  0  0  0  0  0  0  0
   -2.9740    0.4890    0.0000 O   0  0  0  0  0  0  0  0  0  0  0  0
   -2.2600    1.7310    0.0000 S   0  0  0  0  0  0  0  0  0  0  0  0
   -1.4290    1.7290    0.0000 C   0  0  0  0  0  0  0  0  0  0  0  0
   -2.2540    2.5580    0.0000 O   0  0  0  0  0  0  0  0  0  0  0  0
   -2.2620    0.9040    0.0000 O   0  0  0  0  0  0  0  0  0  0  0  0
   -1.0220    1.0060    0.0000 C   0  0  0  0  0  0  0  0  0  0  0  0
   -0.1980    1.0020    0.0000 C   0  0  0  0  0  0  0  0  0  0  0  0
    0.2190    1.7190    0.0000 C   0  0  0  0  0  0  0  0  0  0  0  0
   -0.1940    2.4380    0.0000 C   0  0  0  0  0  0  0  0  0  0  0  0
   -1.0170    2.4390    0.0000 C   0  0  0  0  0  0  0  0  0  0  0  0
    1.0480    1.7160    0.0000 O   0  0  0  0  0  0  0  0  0  0  0  0
    1.8710    1.7170    0.0000 C   0  0  0  0  0  0  0  0  0  0  0  0
    2.2850    0.9980    0.0000 C   0  0  0  0  0  0  0  0  0  0  0  0
    3.1070    0.9990    0.0000 C   0  0  0  0  0  0  0  0  0  0  0  0
    3.5180    1.7170    0.0000 C   0  0  0  0  0  0  0  0  0  0  0  0
    3.1020    2.4310    0.0000 C   0  0  0  0  0  0  0  0  0  0  0  0
    2.2810    2.4270    0.0000 C   0  0  0  0  0  0  0  0  0  0  0  0
    4.3480    1.7190    0.0000 O   0  0  0  0  0  0  0  0  0  0  0  0
    4.7620    1.0010    0.0000 C   0  0  0  0  0  0  0  0  0  0  0  0
   -4.4120   -0.3330    0.0000 O   0  0  0  0  0  0  0  0  0  0  0  0
   -4.4050    1.1420    0.0000 H   0  0  0  0  0  0  0  0  0  0  0  0
   -4.4050    3.9710    0.0000 H   0  0  0  0  0  0  0  0  0  0  0  0
  1  2  1  0  0  0  0
  1  4  1  0  0  0  0
  2  3  1  0  0  0  0
  3  6  1  0  0  0  0
  5  4  1  0  0  0  0
  5  6  1  0  0  0  0
  5 10  1  0  0  0  0
  6  7  1  0  0  0  0
  7  8  1  0  0  0  0
  8  9  1  0  0  0  0
  9 10  1  0  0  0  0
  7 11  1  0  0  0  0
 11 12  1  0  0  0  0
 11 13  2  0  0  0  0
  8 14  1  0  0  0  0
 15 14  1  0  0  0  0
 14 16  2  0  0  0  0
 14 17  2  0  0  0  0
 15 18  2  0  0  0  0
 18 19  1  0  0  0  0
 19 20  2  0  0  0  0
 20 21  1  0  0  0  0
 21 22  2  0  0  0  0
 22 15  1  0  0  0  0
 20 23  1  0  0  0  0
 23 24  1  0  0  0  0
 24 25  2  0  0  0  0
 25 26  1  0  0  0  0
 26 27  2  0  0  0  0
 27 28  1  0  0  0  0
 28 29  2  0  0  0  0
 29 24  1  0  0  0  0
 27 30  1  0  0  0  0
 30 31  1  0  0  0  0
 12 32  1  0  0  0  0
  6 33  1  1  0  0  0
  5 34  1  1  0  0  0
V    5 M1
V    6 M1
M  END
>  <ID_NEW>
CPDMM2035

>  <pIC50>
8.568636235841012

$$$$

  -MTS-   10172316422D 0   0.00000     0.00000     0

 36 39  0  0  1  0  0  0  0  0999 V2000
   -1.2670   -2.7050    0.0000 C   0  0  0  0  0  0  0  0  0  0  0  0
   -1.4570   -3.4370    0.0000 C   0  0  0  0  0  0  0  0  0  0  0  0
   -0.9250   -3.9570    0.0000 C   0  0  0  0  0  0  0  0  0  0  0  0
   -0.5430   -2.4970    0.0000 C   0  0  0  0  0  0  0  0  0  0  0  0
   -0.0130   -3.0300    0.0000 C   0  0  2  0  0  0  0  0  0  0  0  0
   -0.1990   -3.7660    0.0000 C   0  0  1  0  0  0  0  0  0  0  0  0
    0.3320   -4.2820    0.0000 C   0  0  1  0  0  0  0  0  0  0  0  0
    1.0610   -4.0850    0.0000 N   0  0  0  0  0  0  0  0  0  0  0  0
    1.2500   -3.3610    0.0000 C   0  0  0  0  0  0  0  0  0  0  0  0
    0.7120   -2.8310    0.0000 C   0  0  0  0  0  0  0  0  0  0  0  0
    0.1460   -5.0100    0.0000 C   0  0  0  0  0  0  0  0  0  0  0  0
   -0.5830   -5.2140    0.0000 N   0  0  0  0  0  0  0  0  0  0  0  0
    0.6800   -5.5360    0.0000 O   0  0  0  0  0  0  0  0  0  0  0  0
    1.5940   -4.6100    0.0000 S   0  0  0  0  0  0  0  0  0  0  0  0
    2.3160   -4.4080    0.0000 C   0  0  0  0  0  0  0  0  0  0  0  0
    0.8670   -4.8090    0.0000 O   0  0  0  0  0  0  0  0  0  0  0  0
    1.7910   -5.3280    0.0000 O   0  0  0  0  0  0  0  0  0  0  0  0
    2.8530   -4.9290    0.0000 C   0  0  0  0  0  0  0  0  0  0  0  0
    3.5740   -4.7270    0.0000 C   0  0  0  0  0  0  0  0  0  0  0  0
    3.7580   -3.9890    0.0000 C   0  0  0  0  0  0  0  0  0  0  0  0
    3.2140   -3.4740    0.0000 C   0  0  0  0  0  0  0  0  0  0  0  0
    2.5000   -3.6830    0.0000 C   0  0  0  0  0  0  0  0  0  0  0  0
    4.4840   -3.7820    0.0000 C   0  0  0  0  0  0  0  0  0  0  0  0
    5.0240   -4.3160    0.0000 C   0  0  0  0  0  0  0  0  0  0  0  0
    5.7490   -4.1050    0.0000 C   0  0  0  0  0  0  0  0  0  0  0  0
    5.9320   -3.3700    0.0000 C   0  0  0  0  0  0  0  0  0  0  0  0
    5.3830   -2.8510    0.0000 C   0  0  0  0  0  0  0  0  0  0  0  0
    4.6640   -3.0610    0.0000 C   0  0  0  0  0  0  0  0  0  0  0  0
    6.6490   -3.1620    0.0000 O   0  0  0  0  0  0  0  0  0  0  0  0
   -0.7700   -5.9410    0.0000 O   0  0  0  0  0  0  0  0  0  0  0  0
    7.2920   -3.5290    0.0000 C   0  0  0  0  0  0  0  0  0  0  0  0
    7.2870   -4.2670    0.0000 F   0  0  0  0  0  0  0  0  0  0  0  0
    7.9290   -3.1580    0.0000 F   0  0  0  0  0  0  0  0  0  0  0  0
    7.8120   -4.0500    0.0000 F   0  0  0  0  0  0  0  0  0  0  0  0
   -0.4530   -4.7330    0.0000 H   0  0  0  0  0  0  0  0  0  0  0  0
    0.2440   -2.0630    0.0000 H   0  0  0  0  0  0  0  0  0  0  0  0
 14 15  1  0  0  0  0
  3  6  1  0  0  0  0
 14 16  2  0  0  0  0
  5  4  1  0  0  0  0
 14 17  2  0  0  0  0
  5 10  1  0  0  0  0
 15 18  2  0  0  0  0
  6  7  1  0  0  0  0
 18 19  1  0  0  0  0
  7  8  1  0  0  0  0
 19 20  2  0  0  0  0
  8  9  1  0  0  0  0
 20 21  1  0  0  0  0
  9 10  1  0  0  0  0
 21 22  2  0  0  0  0
 22 15  1  0  0  0  0
  5  6  1  0  0  0  0
 20 23  1  0  0  0  0
  7 11  1  1  0  0  0
 23 24  2  0  0  0  0
 24 25  1  0  0  0  0
  1  2  1  0  0  0  0
 25 26  2  0  0  0  0
 11 12  1  0  0  0  0
 26 27  1  0  0  0  0
 11 13  2  0  0  0  0
 27 28  2  0  0  0  0
 28 23  1  0  0  0  0
  1  4  1  0  0  0  0
 26 29  1  0  0  0  0
 12 30  1  0  0  0  0
 29 31  1  0  0  0  0
 31 32  1  0  0  0  0
  8 14  1  0  0  0  0
 31 33  1  0  0  0  0
  2  3  1  0  0  0  0
 31 34  1  0  0  0  0
  6 35  1  6  0  0  0
  5 36  1  6  0  0  0
M  END
>  <ID_NEW>
CPDMM2036

>  <pIC50>
8.568636235841012

$$$$

  -MTS-   10172316422D 0   0.00000     0.00000     0

 33 36  0  0  1  0  0  0  0  0999 V2000
    2.6190   -3.8290    0.0000 C   0  0  0  0  0  0  0  0  0  0  0  0
    2.6180   -4.5810    0.0000 C   0  0  0  0  0  0  0  0  0  0  0  0
    3.2700   -4.9570    0.0000 C   0  0  0  0  0  0  0  0  0  0  0  0
    3.2690   -3.4580    0.0000 C   0  0  0  0  0  0  0  0  0  0  0  0
    3.9170   -3.8300    0.0000 C   0  0  0  0  0  0  0  0  0  0  0  0
    3.9210   -4.5840    0.0000 C   0  0  0  0  0  0  0  0  0  0  0  0
    4.5730   -4.9570    0.0000 C   0  0  1  0  0  0  0  0  0  0  0  0
    5.2310   -4.5820    0.0000 N   0  0  0  0  0  0  0  0  0  0  0  0
    5.2280   -3.8240    0.0000 C   0  0  0  0  0  0  0  0  0  0  0  0
    4.5710   -3.4450    0.0000 C   0  0  0  0  0  0  0  0  0  0  0  0
    4.5760   -5.7070    0.0000 C   0  0  0  0  0  0  0  0  0  0  0  0
    3.9290   -6.0840    0.0000 N   0  0  0  0  0  0  0  0  0  0  0  0
    5.2290   -6.0800    0.0000 O   0  0  0  0  0  0  0  0  0  0  0  0
    3.9210   -6.8330    0.0000 O   0  0  0  0  0  0  0  0  0  0  0  0
    5.8800   -4.9550    0.0000 S   0  0  0  0  0  0  0  0  0  0  0  0
    6.2500   -4.3000    0.0000 O   0  0  0  0  0  0  0  0  0  0  0  0
    5.5000   -5.6000    0.0000 O   0  0  0  0  0  0  0  0  0  0  0  0
    6.5290   -5.3280    0.0000 C   0  0  0  0  0  0  0  0  0  0  0  0
    6.5290   -6.0760    0.0000 C   0  0  0  0  0  0  0  0  0  0  0  0
    7.1810   -6.4490    0.0000 C   0  0  0  0  0  0  0  0  0  0  0  0
    7.8290   -6.0710    0.0000 C   0  0  0  0  0  0  0  0  0  0  0  0
    7.8240   -5.3170    0.0000 C   0  0  0  0  0  0  0  0  0  0  0  0
    7.1750   -4.9480    0.0000 C   0  0  0  0  0  0  0  0  0  0  0  0
    8.4830   -6.4430    0.0000 O   0  0  0  0  0  0  0  0  0  0  0  0
    9.1250   -6.0620    0.0000 C   0  0  0  0  0  0  0  0  0  0  0  0
    9.7790   -6.4330    0.0000 C   0  0  0  0  0  0  0  0  0  0  0  0
   10.4210   -6.0520    0.0000 C   0  0  0  0  0  0  0  0  0  0  0  0
   10.4130   -5.3030    0.0000 C   0  0  0  0  0  0  0  0  0  0  0  0
    9.7580   -4.9360    0.0000 C   0  0  0  0  0  0  0  0  0  0  0  0
    9.1150   -5.3190    0.0000 C   0  0  0  0  0  0  0  0  0  0  0  0
   11.0610   -4.9210    0.0000 Cl  0  0  0  0  0  0  0  0  0  0  0  0
    3.2700   -5.7090    0.0000 F   0  0  0  0  0  0  0  0  0  0  0  0
    3.2690   -2.7100    0.0000 C   0  0  0  0  0  0  0  0  0  0  0  0
  7  8  1  0  0  0  0
  8 15  1  0  0  0  0
  8  9  1  0  0  0  0
 15 16  2  0  0  0  0
  9 10  1  0  0  0  0
 15 17  2  0  0  0  0
  5  6  1  0  0  0  0
 15 18  1  0  0  0  0
 18 19  2  0  0  0  0
 19 20  1  0  0  0  0
  2  3  1  0  0  0  0
 20 21  2  0  0  0  0
  3  6  2  0  0  0  0
 21 22  1  0  0  0  0
  1  2  2  0  0  0  0
 22 23  2  0  0  0  0
 23 18  1  0  0  0  0
  5  4  2  0  0  0  0
 21 24  1  0  0  0  0
 24 25  1  0  0  0  0
  7 11  1  1  0  0  0
 25 26  2  0  0  0  0
  4  1  1  0  0  0  0
 26 27  1  0  0  0  0
 11 12  1  0  0  0  0
 27 28  2  0  0  0  0
  5 10  1  0  0  0  0
 28 29  1  0  0  0  0
 11 13  2  0  0  0  0
 29 30  2  0  0  0  0
 30 25  1  0  0  0  0
  6  7  1  0  0  0  0
 28 31  1  0  0  0  0
  3 32  1  0  0  0  0
 12 14  1  0  0  0  0
  4 33  1  0  0  0  0
M  END
>  <ID_NEW>
CPDMM2037

>  <pIC50>
8.552841968657779

$$$$

  -MTS-   10172316422D 0   0.00000     0.00000     0

 32 35  0  0  1  0  0  0  0  0999 V2000
    5.4100   -1.6570    0.0000 N   0  0  0  0  0  0  0  0  0  0  0  0
    5.6120   -2.3580    0.0000 S   0  0  0  0  0  0  0  0  0  0  0  0
    5.8660   -1.0670    0.0000 C   0  0  1  0  0  0  0  0  0  0  0  0
    6.6330   -1.0670    0.0000 C   0  0  0  0  0  0  0  0  0  0  0  0
    4.6700   -1.4330    0.0000 C   0  0  1  0  0  0  0  0  0  0  0  0
    5.4040   -0.4730    0.0000 C   0  0  0  0  0  0  0  0  0  0  0  0
    5.8040   -3.0620    0.0000 C   0  0  0  0  0  0  0  0  0  0  0  0
    4.6670   -0.7040    0.0000 C   0  0  1  0  0  0  0  0  0  0  0  0
    4.8580   -2.5500    0.0000 O   0  0  0  0  0  0  0  0  0  0  0  0
    6.3540   -2.1670    0.0000 O   0  0  0  0  0  0  0  0  0  0  0  0
    6.8010   -6.5650    0.0000 C   0  0  0  0  0  0  0  0  0  0  0  0
    6.6290   -0.3250    0.0000 O   0  0  0  0  0  0  0  0  0  0  0  0
    6.2060   -4.4570    0.0000 C   0  0  0  0  0  0  0  0  0  0  0  0
    6.4030   -5.1610    0.0000 C   0  0  0  0  0  0  0  0  0  0  0  0
    7.1710   -1.5920    0.0000 N   0  0  0  0  0  0  0  0  0  0  0  0
    5.2600   -3.5720    0.0000 C   0  0  0  0  0  0  0  0  0  0  0  0
    6.5500   -3.2480    0.0000 C   0  0  0  0  0  0  0  0  0  0  0  0
    7.3470   -6.0430    0.0000 C   0  0  0  0  0  0  0  0  0  0  0  0
    6.0540   -6.3730    0.0000 C   0  0  0  0  0  0  0  0  0  0  0  0
    5.8530   -5.6740    0.0000 C   0  0  0  0  0  0  0  0  0  0  0  0
    5.4550   -4.2720    0.0000 C   0  0  0  0  0  0  0  0  0  0  0  0
    7.1510   -5.3460    0.0000 C   0  0  0  0  0  0  0  0  0  0  0  0
    6.7570   -3.9450    0.0000 C   0  0  0  0  0  0  0  0  0  0  0  0
    7.9290   -1.5920    0.0000 O   0  0  0  0  0  0  0  0  0  0  0  0
    3.9370   -1.6580    0.0000 C   0  0  0  0  0  0  0  0  0  0  0  0
    3.9270   -0.4860    0.0000 C   0  0  0  0  0  0  0  0  0  0  0  0
    3.4740   -1.0810    0.0000 C   0  0  0  0  0  0  0  0  0  0  0  0
    7.0000   -7.2830    0.0000 N   0  3  0  0  0  0  0  0  0  0  0  0
    6.4760   -7.8190    0.0000 O   0  5  0  0  0  0  0  0  0  0  0  0
    7.7270   -7.4710    0.0000 O   0  0  0  0  0  0  0  0  0  0  0  0
    4.6580    0.2960    0.0000 H   0  0  0  0  0  0  0  0  0  0  0  0
    4.6730   -2.4330    0.0000 H   0  0  0  0  0  0  0  0  0  0  0  0
  2  7  1  0  0  0  0
  7 16  2  0  0  0  0
 16 21  1  0  0  0  0
 21 13  2  0  0  0  0
 13 23  1  0  0  0  0
 23 17  2  0  0  0  0
 17  7  1  0  0  0  0
 13 14  1  0  0  0  0
 14 20  2  0  0  0  0
 20 19  1  0  0  0  0
 19 11  2  0  0  0  0
 11 18  1  0  0  0  0
 18 22  2  0  0  0  0
 22 14  1  0  0  0  0
 11 28  1  0  0  0  0
  4 12  2  0  0  0  0
  4 15  1  0  0  0  0
 15 24  1  0  0  0  0
  8 26  1  0  0  0  0
 26 27  1  0  0  0  0
 27 25  1  0  0  0  0
 25  5  1  0  0  0  0
  8  5  1  0  0  0  0
  5  1  1  0  0  0  0
  1  3  1  0  0  0  0
  3  6  1  0  0  0  0
  6  8  1  0  0  0  0
  3  4  1  6  0  0  0
  1  2  1  0  0  0  0
  2  9  2  0  0  0  0
  2 10  2  0  0  0  0
 28 29  1  0  0  0  0
 28 30  2  0  0  0  0
  8 31  1  1  0  0  0
  5 32  1  1  0  0  0
M  CHG  2  28   1  29  -1
M  END
>  <ID_NEW>
CPDMM2038

>  <pIC50>
8.540909210399413

$$$$

  -MTS-   10172316422D 0   0.00000     0.00000     0

 30 33  0  0  1  0  0  0  0  0999 V2000
   -5.9870    1.7960    0.0000 S   0  0  0  0  0  0  0  0  0  0  0  0
   -6.7170    1.7870    0.0000 N   0  0  0  0  0  0  0  0  0  0  0  0
   -7.0920    1.1460    0.0000 C   0  0  1  0  0  0  0  0  0  0  0  0
   -6.7120    0.5080    0.0000 C   0  0  0  0  0  0  0  0  0  0  0  0
   -7.8290    1.1460    0.0000 C   0  0  0  0  0  0  0  0  0  0  0  0
   -7.0870    2.4250    0.0000 C   0  0  0  0  0  0  0  0  0  0  0  0
   -5.2370    1.8080    0.0000 C   0  0  0  0  0  0  0  0  0  0  0  0
   -5.9960    2.5460    0.0000 O   0  0  0  0  0  0  0  0  0  0  0  0
   -5.9580    1.0710    0.0000 O   0  0  0  0  0  0  0  0  0  0  0  0
   -8.2040    1.7710    0.0000 C   0  0  0  0  0  0  0  0  0  0  0  0
   -5.9830    0.5120    0.0000 O   0  0  0  0  0  0  0  0  0  0  0  0
   -3.7500    1.8460    0.0000 C   0  0  0  0  0  0  0  0  0  0  0  0
   -3.0000    1.8580    0.0000 C   0  0  0  0  0  0  0  0  0  0  0  0
   -7.8420    2.4210    0.0000 C   0  0  0  0  0  0  0  0  0  0  0  0
   -7.0790   -0.1250    0.0000 N   0  0  0  0  0  0  0  0  0  0  0  0
   -4.8580    1.1830    0.0000 C   0  0  0  0  0  0  0  0  0  0  0  0
   -4.8830    2.4710    0.0000 C   0  0  0  0  0  0  0  0  0  0  0  0
   -4.1000    1.1960    0.0000 C   0  0  0  0  0  0  0  0  0  0  0  0
   -4.1460    2.4750    0.0000 C   0  0  0  0  0  0  0  0  0  0  0  0
   -2.6500    2.5170    0.0000 C   0  0  0  0  0  0  0  0  0  0  0  0
   -2.6210    1.2330    0.0000 C   0  0  0  0  0  0  0  0  0  0  0  0
   -1.5210    1.9080    0.0000 C   0  0  0  0  0  0  0  0  0  0  0  0
   -1.9120    2.5460    0.0000 C   0  0  0  0  0  0  0  0  0  0  0  0
   -1.8750    1.2710    0.0000 C   0  0  0  0  0  0  0  0  0  0  0  0
   -0.7710    1.9120    0.0000 F   0  0  0  0  0  0  0  0  0  0  0  0
   -6.7120   -0.7540    0.0000 O   0  0  0  0  0  0  0  0  0  0  0  0
   -8.1920    0.5080    0.0000 C   0  0  0  0  0  0  0  0  0  0  0  0
   -8.9460    1.7580    0.0000 C   0  0  0  0  0  0  0  0  0  0  0  0
   -8.9170    0.5000    0.0000 C   0  0  0  0  0  0  0  0  0  0  0  0
   -9.3000    1.1330    0.0000 C   0  0  0  0  0  0  0  0  0  0  0  0
  2  1  1  0  0  0  0
  3  2  1  0  0  0  0
  3  4  1  1  0  0  0
  5  3  1  0  0  0  0
  6  2  1  0  0  0  0
  7  1  1  0  0  0  0
  8  1  2  0  0  0  0
  9  1  2  0  0  0  0
 10 14  1  0  0  0  0
 11  4  2  0  0  0  0
 12 18  2  0  0  0  0
 13 12  1  0  0  0  0
 14  6  1  0  0  0  0
 15  4  1  0  0  0  0
 16  7  2  0  0  0  0
 17  7  1  0  0  0  0
 18 16  1  0  0  0  0
 19 17  2  0  0  0  0
 20 13  1  0  0  0  0
 21 13  2  0  0  0  0
 22 23  1  0  0  0  0
 23 20  2  0  0  0  0
 24 21  1  0  0  0  0
 25 22  1  0  0  0  0
 26 15  1  0  0  0  0
 27  5  2  0  0  0  0
 28 10  2  0  0  0  0
 29 27  1  0  0  0  0
 30 28  1  0  0  0  0
 19 12  1  0  0  0  0
 10  5  1  0  0  0  0
 30 29  2  0  0  0  0
 22 24  2  0  0  0  0
M  END
>  <ID_NEW>
CPDMM2039

>  <pIC50>
8.526805090795062

$$$$

  SciTegic12180813002D

 29 32  0  0  0  0            999 V2000
    1.5844   -8.0997    0.0000 O   0  0
    0.3210   -8.9082    0.0000 C   0  0
   -0.8384   -7.9564    0.0000 C   0  0
    1.2060   -6.6482    0.0000 C   0  0
   -0.2914   -6.5596    0.0000 C   0  0
   -0.9634   -5.2186    0.0000 C   0  0
   -0.1380   -3.9661    0.0000 N   0  0
    1.3594   -4.0547    0.0000 C   0  0
    2.0314   -5.3957    0.0000 C   0  0
   -2.4608   -5.1300    0.0000 C   0  0
   -3.2862   -6.3825    0.0000 N   0  0
   -3.1328   -3.7889    0.0000 O   0  0
    0.4251   -0.3393    0.0000 C   0  0
    0.4674   -1.8387    0.0000 C   0  0
    1.7871   -2.5518    0.0000 C   0  0
    3.0645   -1.7655    0.0000 C   0  0
    3.0222   -0.2661    0.0000 C   0  0
    1.7025    0.4470    0.0000 C   0  0
    4.2996    0.5202    0.0000 C   0  0
    5.6192   -0.1929    0.0000 C   0  0
    6.8966    0.5899    0.0000 C   0  0
    6.8544    2.0905    0.0000 C   0  0
    5.5347    2.8024    0.0000 C   0  0
    4.2573    2.0137    0.0000 C   0  0
    8.1317    2.8709    0.0000 Cl  0  0
   -0.8100   -2.6250    0.0000 S   0  0
   -2.2045   -3.1776    0.0000 O   0  0
   -1.4820   -1.2840    0.0000 O   0  0
   -4.7836   -6.2939    0.0000 O   0  0
  8  9  1  0
 10 11  1  0
 10 12  2  0
  6 10  1  0
  2  3  1  0
  1  2  1  0
  3  5  1  0
  4  1  1  0
  4  5  1  0
  4  9  1  0
  5  6  1  0
  6  7  1  0
  7  8  1  0
 20 21  1  0
 16 17  1  0
 21 22  2  0
 14 15  1  0
 22 23  1  0
 17 18  2  0
 23 24  2  0
 24 19  1  0
 18 13  1  0
 22 25  1  0
 13 14  2  0
 14 26  1  0
 17 19  1  0
 15 16  2  0
 26 27  2  0
 19 20  2  0
 26 28  2  0
  7 26  1  0
 11 29  1  0
M  END
>  <ID_NEW>
CPDMM2040

>  <pIC50>
8.524910196610993

$$$$

  -MTS-   10172316422D 0   0.00000     0.00000     0

 33 36  0  0  1  0  0  0  0  0999 V2000
   -0.2600   -1.4790    0.0000 C   0  0  0  0  0  0  0  0  0  0  0  0
   -0.2610   -2.3020    0.0000 C   0  0  0  0  0  0  0  0  0  0  0  0
    0.4580   -2.7150    0.0000 C   0  0  0  0  0  0  0  0  0  0  0  0
    0.4560   -1.0660    0.0000 C   0  0  0  0  0  0  0  0  0  0  0  0
    1.1670   -1.4750    0.0000 C   0  0  0  0  0  0  0  0  0  0  0  0
    1.1670   -2.3000    0.0000 C   0  0  0  0  0  0  0  0  0  0  0  0
    1.8820   -2.7160    0.0000 C   0  0  0  0  0  0  0  0  0  0  0  0
    2.5980   -2.3030    0.0000 N   0  0  0  0  0  0  0  0  0  0  0  0
    2.5990   -1.4780    0.0000 C   0  0  2  0  0  0  0  0  0  0  0  0
    1.8830   -1.0660    0.0000 C   0  0  0  0  0  0  0  0  0  0  0  0
    3.3200   -1.0630    0.0000 C   0  0  0  0  0  0  0  0  0  0  0  0
    4.0320   -1.4820    0.0000 N   0  0  0  0  0  0  0  0  0  0  0  0
    3.3220   -0.2380    0.0000 O   0  0  0  0  0  0  0  0  0  0  0  0
    3.3180   -2.7220    0.0000 S   0  0  0  0  0  0  0  0  0  0  0  0
    3.7390   -2.0030    0.0000 O   0  0  0  0  0  0  0  0  0  0  0  0
    2.8980   -3.4440    0.0000 O   0  0  0  0  0  0  0  0  0  0  0  0
    4.0400   -3.1430    0.0000 C   0  0  0  0  0  0  0  0  0  0  0  0
    4.7600   -2.7300    0.0000 C   0  0  0  0  0  0  0  0  0  0  0  0
    5.4740   -3.1480    0.0000 C   0  0  0  0  0  0  0  0  0  0  0  0
    5.4630   -3.9760    0.0000 C   0  0  0  0  0  0  0  0  0  0  0  0
    6.1760   -4.3890    0.0000 C   0  0  0  0  0  0  0  0  0  0  0  0
    6.9050   -3.9860    0.0000 C   0  0  0  0  0  0  0  0  0  0  0  0
    6.9110   -3.1600    0.0000 C   0  0  0  0  0  0  0  0  0  0  0  0
    6.1930   -2.7390    0.0000 C   0  0  0  0  0  0  0  0  0  0  0  0
    7.6190   -4.3980    0.0000 C   0  0  0  0  0  0  0  0  0  0  0  0
    7.6180   -5.2260    0.0000 C   0  0  0  0  0  0  0  0  0  0  0  0
    8.3320   -5.6380    0.0000 C   0  0  0  0  0  0  0  0  0  0  0  0
    9.0520   -5.2250    0.0000 C   0  0  0  0  0  0  0  0  0  0  0  0
    9.0530   -4.3960    0.0000 C   0  0  0  0  0  0  0  0  0  0  0  0
    8.3340   -3.9830    0.0000 C   0  0  0  0  0  0  0  0  0  0  0  0
    9.7740   -3.9770    0.0000 C   0  0  0  0  0  0  0  0  0  0  0  0
   10.4940   -3.5570    0.0000 N   0  0  0  0  0  0  0  0  0  0  0  0
    4.7500   -1.0750    0.0000 O   0  0  0  0  0  0  0  0  0  0  0  0
 14 16  2  0  0  0  0
  4  1  1  0  0  0  0
 14 17  1  0  0  0  0
  5 10  1  0  0  0  0
 17 18  1  0  0  0  0
  6  7  1  0  0  0  0
 18 19  1  0  0  0  0
  7  8  1  0  0  0  0
 19 20  2  0  0  0  0
  8  9  1  0  0  0  0
 20 21  1  0  0  0  0
  9 10  1  0  0  0  0
 21 22  2  0  0  0  0
  5  6  1  0  0  0  0
 22 23  1  0  0  0  0
  9 11  1  6  0  0  0
 23 24  2  0  0  0  0
 24 19  1  0  0  0  0
 22 25  1  0  0  0  0
 11 12  1  0  0  0  0
 25 26  2  0  0  0  0
  2  3  1  0  0  0  0
 26 27  1  0  0  0  0
 11 13  2  0  0  0  0
 27 28  2  0  0  0  0
  3  6  2  0  0  0  0
 28 29  1  0  0  0  0
  8 14  1  0  0  0  0
 29 30  2  0  0  0  0
 30 25  1  0  0  0  0
  1  2  2  0  0  0  0
 29 31  1  0  0  0  0
 14 15  2  0  0  0  0
 31 32  3  0  0  0  0
  5  4  2  0  0  0  0
 12 33  1  0  0  0  0
M  END
>  <ID_NEW>
CPDMM2041

>  <pIC50>
8.522878745280337

$$$$

  -MTS-   10172316422D 0   0.00000     0.00000     0

 36 39  0  0  1  0  0  0  0  0999 V2000
    0.1190   -0.3920    0.0000 C   0  0  0  0  0  0  0  0  0  0  0  0
    0.1180   -1.2150    0.0000 C   0  0  0  0  0  0  0  0  0  0  0  0
    0.8370   -1.6280    0.0000 C   0  0  0  0  0  0  0  0  0  0  0  0
    0.8350    0.0210    0.0000 C   0  0  0  0  0  0  0  0  0  0  0  0
    1.5470   -0.3880    0.0000 C   0  0  0  0  0  0  0  0  0  0  0  0
    1.5460   -1.2130    0.0000 C   0  0  0  0  0  0  0  0  0  0  0  0
    2.2610   -1.6280    0.0000 C   0  0  0  0  0  0  0  0  0  0  0  0
    2.9770   -1.2150    0.0000 N   0  0  0  0  0  0  0  0  0  0  0  0
    2.9780   -0.3900    0.0000 C   0  0  2  0  0  0  0  0  0  0  0  0
    2.2620    0.0210    0.0000 C   0  0  0  0  0  0  0  0  0  0  0  0
    3.6990    0.0240    0.0000 C   0  0  0  0  0  0  0  0  0  0  0  0
    3.7010    0.8490    0.0000 O   0  0  0  0  0  0  0  0  0  0  0  0
    3.6970   -1.6340    0.0000 S   0  0  0  0  0  0  0  0  0  0  0  0
    4.1190   -0.9150    0.0000 O   0  0  0  0  0  0  0  0  0  0  0  0
    3.2780   -2.3560    0.0000 O   0  0  0  0  0  0  0  0  0  0  0  0
    4.4110   -2.0470    0.0000 C   0  0  0  0  0  0  0  0  0  0  0  0
    4.4100   -2.8720    0.0000 C   0  0  0  0  0  0  0  0  0  0  0  0
    5.1240   -3.2850    0.0000 C   0  0  0  0  0  0  0  0  0  0  0  0
    5.1210   -4.1090    0.0000 C   0  0  0  0  0  0  0  0  0  0  0  0
    5.8350   -4.5220    0.0000 C   0  0  0  0  0  0  0  0  0  0  0  0
    6.5500   -4.1110    0.0000 C   0  0  0  0  0  0  0  0  0  0  0  0
    6.5490   -3.2810    0.0000 C   0  0  0  0  0  0  0  0  0  0  0  0
    5.8350   -2.8720    0.0000 C   0  0  0  0  0  0  0  0  0  0  0  0
    4.4130   -0.3900    0.0000 N   0  0  0  0  0  0  0  0  0  0  0  0
    5.1280    0.0210    0.0000 O   0  0  0  0  0  0  0  0  0  0  0  0
    7.2650   -4.5230    0.0000 C   0  0  0  0  0  0  0  0  0  0  0  0
    7.2600   -5.3470    0.0000 C   0  0  0  0  0  0  0  0  0  0  0  0
    7.9740   -5.7590    0.0000 C   0  0  0  0  0  0  0  0  0  0  0  0
    8.6890   -5.3460    0.0000 C   0  0  0  0  0  0  0  0  0  0  0  0
    8.6860   -4.5170    0.0000 C   0  0  0  0  0  0  0  0  0  0  0  0
    7.9720   -4.1080    0.0000 C   0  0  0  0  0  0  0  0  0  0  0  0
    9.4040   -5.7570    0.0000 C   0  0  0  0  0  0  0  0  0  0  0  0
    9.4060   -6.5820    0.0000 O   0  0  0  0  0  0  0  0  0  0  0  0
   10.1180   -5.3440    0.0000 N   0  0  0  0  0  0  0  0  0  0  0  0
   10.8330   -5.7550    0.0000 C   0  0  0  0  0  0  0  0  0  0  0  0
   10.1170   -4.5190    0.0000 C   0  0  0  0  0  0  0  0  0  0  0  0
  5 10  1  0  0  0  0
 17 18  1  0  0  0  0
  6  7  1  0  0  0  0
 18 19  2  0  0  0  0
  7  8  1  0  0  0  0
 19 20  1  0  0  0  0
  8  9  1  0  0  0  0
 20 21  2  0  0  0  0
  9 10  1  0  0  0  0
 21 22  1  0  0  0  0
  5  6  1  0  0  0  0
 22 23  2  0  0  0  0
 23 18  1  0  0  0  0
  9 11  1  6  0  0  0
 11 24  1  0  0  0  0
 24 25  1  0  0  0  0
 11 12  2  0  0  0  0
 21 26  1  0  0  0  0
  2  3  1  0  0  0  0
 26 27  2  0  0  0  0
  8 13  1  0  0  0  0
 27 28  1  0  0  0  0
  3  6  2  0  0  0  0
 28 29  2  0  0  0  0
 13 14  2  0  0  0  0
 29 30  1  0  0  0  0
  1  2  2  0  0  0  0
 30 31  2  0  0  0  0
 31 26  1  0  0  0  0
 13 15  2  0  0  0  0
 29 32  1  0  0  0  0
  5  4  2  0  0  0  0
 32 33  2  0  0  0  0
 13 16  1  0  0  0  0
 32 34  1  0  0  0  0
  4  1  1  0  0  0  0
 34 35  1  0  0  0  0
 16 17  1  0  0  0  0
 34 36  1  0  0  0  0
M  END
>  <ID_NEW>
CPDMM2042

>  <pIC50>
8.522878745280337

$$$$

  SciTegic12180812342D

 28 31  0  0  0  0            999 V2000
   -5.7348    2.0875    0.0000 C   0  0
   -5.7359    1.2727    0.0000 C   0  0
   -5.0378    0.8681    0.0000 C   0  0
   -5.0396    2.4919    0.0000 C   0  0
   -4.3408    2.0912    0.0000 C   0  0
   -4.3374    1.2706    0.0000 C   0  0
   -3.6265    0.8676    0.0000 C   0  0
   -2.9312    1.2807    0.0000 N   0  0
   -2.9347    2.0929    0.0000 C   0  0
   -3.6418    2.5005    0.0000 C   0  0
   -3.6285    0.0593    0.0000 C   0  0
   -4.3279   -0.3505    0.0000 N   0  0
   -2.9324   -0.3467    0.0000 O   0  0
   -2.2334    0.8792    0.0000 S   0  0
   -1.5417    1.2875    0.0000 C   0  0
   -2.8084    0.3041    0.0000 O   0  0
   -1.6666    0.3041    0.0000 O   0  0
   -0.8375    0.8842    0.0000 C   0  0
   -0.1380    1.2876    0.0000 C   0  0
   -0.1422    2.0972    0.0000 C   0  0
   -0.8476    2.5015    0.0000 C   0  0
   -1.5441    2.0916    0.0000 C   0  0
    0.5503    2.5054    0.0000 N   0  0
    1.2926    2.1785    0.0000 N   0  0
    1.8312    2.7812    0.0000 C   0  0
    1.4271    3.4779    0.0000 C   0  0
    0.6345    3.3046    0.0000 C   0  0
   -4.3226   -1.1755    0.0000 O   0  0
 14 17  2  0
  5 10  1  0
 15 18  2  0
  6  7  1  0
 18 19  1  0
  7  8  1  0
 19 20  2  0
  8  9  1  0
 20 21  1  0
  9 10  1  0
 21 22  2  0
 22 15  1  0
  5  6  1  0
  7 11  1  0
  2  3  1  0
 11 12  1  0
 11 13  2  0
  3  6  2  0
 20 23  1  0
 23 24  1  0
  8 14  1  0
  1  2  2  0
 14 15  1  0
 24 25  2  0
 25 26  1  0
 26 27  2  0
 27 23  1  0
  5  4  2  0
 14 16  2  0
 12 28  1  0
  4  1  1  0
M  END
>  <ID_NEW>
CPDMM2043

>  <pIC50>
8.522878745280337

$$$$

  -MTS-   10172316422D 0   0.00000     0.00000     0

 39 43  0  0  1  0  0  0  0  0999 V2000
   -1.9970   -0.6620    0.0000 C   0  0  0  0  0  0  0  0  0  0  0  0
   -1.9980   -1.4900    0.0000 C   0  0  0  0  0  0  0  0  0  0  0  0
   -1.2840   -1.9030    0.0000 C   0  0  0  0  0  0  0  0  0  0  0  0
   -1.2850   -0.2500    0.0000 C   0  0  0  0  0  0  0  0  0  0  0  0
   -0.5700   -0.6590    0.0000 C   0  0  0  0  0  0  0  0  0  0  0  0
   -0.5670   -1.4920    0.0000 C   0  0  0  0  0  0  0  0  0  0  0  0
    0.1530   -1.9030    0.0000 C   0  0  0  0  0  0  0  0  0  0  0  0
    0.8730   -1.4860    0.0000 N   0  0  0  0  0  0  0  0  0  0  0  0
    0.8690   -0.6530    0.0000 C   0  0  2  0  0  0  0  0  0  0  0  0
    0.1460   -0.2370    0.0000 C   0  0  0  0  0  0  0  0  0  0  0  0
    1.5830   -0.2380    0.0000 C   0  0  0  0  0  0  0  0  0  0  0  0
    1.5810    0.5890    0.0000 O   0  0  0  0  0  0  0  0  0  0  0  0
    1.5900   -1.8920    0.0000 S   0  0  0  0  0  0  0  0  0  0  0  0
    1.0000   -2.4750    0.0000 O   0  0  0  0  0  0  0  0  0  0  0  0
    1.9960   -2.6040    0.0000 O   0  0  0  0  0  0  0  0  0  0  0  0
    2.3810   -1.6770    0.0000 C   0  0  0  0  0  0  0  0  0  0  0  0
    2.8910   -2.3240    0.0000 C   0  0  0  0  0  0  0  0  0  0  0  0
    3.7040   -2.2030    0.0000 C   0  0  0  0  0  0  0  0  0  0  0  0
    4.0070   -1.4380    0.0000 C   0  0  0  0  0  0  0  0  0  0  0  0
    3.4910   -0.7920    0.0000 C   0  0  0  0  0  0  0  0  0  0  0  0
    2.6800   -0.9150    0.0000 C   0  0  0  0  0  0  0  0  0  0  0  0
    4.8230   -1.3160    0.0000 C   0  0  0  0  0  0  0  0  0  0  0  0
    5.3320   -1.9620    0.0000 C   0  0  0  0  0  0  0  0  0  0  0  0
    6.1470   -1.8410    0.0000 C   0  0  0  0  0  0  0  0  0  0  0  0
    6.4500   -1.0720    0.0000 C   0  0  0  0  0  0  0  0  0  0  0  0
    5.9310   -0.4250    0.0000 C   0  0  0  0  0  0  0  0  0  0  0  0
    5.1180   -0.5500    0.0000 C   0  0  0  0  0  0  0  0  0  0  0  0
    7.2660   -0.9490    0.0000 N   0  0  0  0  0  0  0  0  0  0  0  0
    7.7800   -1.5940    0.0000 C   0  0  0  0  0  0  0  0  0  0  0  0
    8.5960   -1.4710    0.0000 N   0  0  0  0  0  0  0  0  0  0  0  0
    7.4790   -2.3620    0.0000 O   0  0  0  0  0  0  0  0  0  0  0  0
    9.1110   -2.1150    0.0000 C   0  0  0  0  0  0  0  0  0  0  0  0
    8.8080   -2.8800    0.0000 C   0  0  0  0  0  0  0  0  0  0  0  0
    9.3210   -3.5240    0.0000 N   0  0  0  0  0  0  0  0  0  0  0  0
   10.1380   -3.4010    0.0000 C   0  0  0  0  0  0  0  0  0  0  0  0
   10.4380   -2.6280    0.0000 C   0  0  0  0  0  0  0  0  0  0  0  0
    9.9220   -1.9870    0.0000 C   0  0  0  0  0  0  0  0  0  0  0  0
    2.2980   -0.6490    0.0000 N   0  0  0  0  0  0  0  0  0  0  0  0
    3.0120   -0.2340    0.0000 O   0  0  0  0  0  0  0  0  0  0  0  0
 21 16  1  0  0  0  0
  9 10  1  0  0  0  0
 19 22  1  0  0  0  0
  5  6  1  0  0  0  0
 22 23  2  0  0  0  0
  9 11  1  6  0  0  0
 23 24  1  0  0  0  0
 24 25  2  0  0  0  0
 11 12  2  0  0  0  0
 25 26  1  0  0  0  0
  8 13  1  0  0  0  0
 26 27  2  0  0  0  0
 27 22  1  0  0  0  0
  2  3  1  0  0  0  0
 25 28  1  0  0  0  0
  3  6  2  0  0  0  0
 28 29  1  0  0  0  0
 13 14  2  0  0  0  0
 29 30  1  0  0  0  0
  1  2  2  0  0  0  0
 29 31  2  0  0  0  0
 13 15  2  0  0  0  0
 30 32  1  0  0  0  0
  5  4  2  0  0  0  0
 32 33  2  0  0  0  0
  4  1  1  0  0  0  0
 33 34  1  0  0  0  0
 16 17  2  0  0  0  0
 34 35  2  0  0  0  0
  5 10  1  0  0  0  0
 35 36  1  0  0  0  0
 17 18  1  0  0  0  0
 36 37  2  0  0  0  0
 37 32  1  0  0  0  0
 13 16  1  0  0  0  0
  6  7  1  0  0  0  0
 11 38  1  0  0  0  0
 18 19  2  0  0  0  0
 38 39  1  0  0  0  0
  7  8  1  0  0  0  0
 19 20  1  0  0  0  0
  8  9  1  0  0  0  0
 20 21  2  0  0  0  0
M  END
>  <ID_NEW>
CPDMM2044

>  <pIC50>
8.522878745280337

$$$$

  SciTegic12180812252D

 30 33  0  0  0  0            999 V2000
   -4.7499    2.8826    0.0000 C   0  0
   -4.8823    2.3675    0.0000 C   0  0
   -4.5042    2.0016    0.0000 C   0  0
   -4.2393    3.0277    0.0000 C   0  0
   -3.8632    2.6537    0.0000 C   0  0
   -3.9947    2.1383    0.0000 C   0  0
   -3.6219    1.7717    0.0000 C   0  0
   -3.1102    1.9108    0.0000 N   0  0
   -2.9788    2.4221    0.0000 C   0  0
   -3.3549    2.7942    0.0000 C   0  0
   -3.7544    1.2607    0.0000 C   0  0
   -4.2659    1.1188    0.0000 N   0  0
   -3.3787    0.8886    0.0000 O   0  0
   -2.7350    1.5402    0.0000 S   0  0
   -2.2259    1.6840    0.0000 C   0  0
   -3.2457    1.4032    0.0000 O   0  0
   -2.5959    1.0342    0.0000 O   0  0
   -1.8466    1.3168    0.0000 C   0  0
   -1.3381    1.4601    0.0000 C   0  0
   -1.2088    1.9774    0.0000 C   0  0
   -1.5941    2.3428    0.0000 C   0  0
   -2.0962    2.1965    0.0000 C   0  0
   -0.6994    2.1224    0.0000 C   0  0
   -0.3177    1.7503    0.0000 C   0  0
    0.1911    1.8990    0.0000 C   0  0
    0.3195    2.4129    0.0000 C   0  0
   -0.0671    2.7822    0.0000 C   0  0
   -0.5736    2.6305    0.0000 C   0  0
    0.8245    2.5590    0.0000 Cl  0  0
   -4.3987    0.6050    0.0000 O   0  0
  8 14  1  0
  2  3  1  0
 14 15  1  0
  3  6  1  0
 14 16  2  0
  5  4  1  0
 14 17  2  0
  5 10  1  0
 15 18  2  0
  6  7  1  0
 18 19  1  0
  7  8  1  0
 19 20  2  0
  8  9  1  0
 20 21  1  0
  9 10  1  0
 21 22  2  0
 22 15  1  0
  5  6  1  0
 20 23  1  0
  7 11  1  0
 23 24  2  0
 24 25  1  0
  1  2  1  0
 25 26  2  0
 11 12  1  0
 26 27  1  0
 11 13  2  0
 27 28  2  0
 28 23  1  0
  1  4  1  0
 26 29  1  0
 12 30  1  0
M  END
>  <ID_NEW>
CPDMM2045

>  <pIC50>
8.522878745280337

$$$$

  -MTS-   10172316422D 0   0.00000     0.00000     0

 34 37  0  0  1  0  0  0  0  0999 V2000
   -5.7060    2.7210    0.0000 C   0  0  0  0  0  0  0  0  0  0  0  0
   -5.7070    1.8940    0.0000 C   0  0  0  0  0  0  0  0  0  0  0  0
   -4.9920    1.4810    0.0000 C   0  0  0  0  0  0  0  0  0  0  0  0
   -4.9940    3.1340    0.0000 C   0  0  0  0  0  0  0  0  0  0  0  0
   -4.2780    2.7250    0.0000 C   0  0  0  0  0  0  0  0  0  0  0  0
   -4.2750    1.8910    0.0000 C   0  0  0  0  0  0  0  0  0  0  0  0
   -3.5560    1.4800    0.0000 C   0  0  1  0  0  0  0  0  0  0  0  0
   -2.8350    1.8970    0.0000 N   0  0  0  0  0  0  0  0  0  0  0  0
   -2.8390    2.7300    0.0000 C   0  0  0  0  0  0  0  0  0  0  0  0
   -3.5630    3.1460    0.0000 C   0  0  0  0  0  0  0  0  0  0  0  0
   -3.5530    0.6550    0.0000 C   0  0  0  0  0  0  0  0  0  0  0  0
   -4.2650    0.2370    0.0000 N   0  0  0  0  0  0  0  0  0  0  0  0
   -2.8360    0.2410    0.0000 O   0  0  0  0  0  0  0  0  0  0  0  0
   -2.1200    1.4870    0.0000 S   0  0  0  0  0  0  0  0  0  0  0  0
   -2.8370    1.0790    0.0000 O   0  0  0  0  0  0  0  0  0  0  0  0
   -1.7120    0.7750    0.0000 O   0  0  0  0  0  0  0  0  0  0  0  0
   -1.3250    1.7040    0.0000 C   0  0  0  0  0  0  0  0  0  0  0  0
   -0.7400    1.1220    0.0000 C   0  0  0  0  0  0  0  0  0  0  0  0
    0.0540    1.3390    0.0000 C   0  0  0  0  0  0  0  0  0  0  0  0
    0.2630    2.1360    0.0000 C   0  0  0  0  0  0  0  0  0  0  0  0
   -0.3270    2.7170    0.0000 C   0  0  0  0  0  0  0  0  0  0  0  0
   -1.1190    2.4970    0.0000 C   0  0  0  0  0  0  0  0  0  0  0  0
    1.0590    2.3550    0.0000 O   0  0  0  0  0  0  0  0  0  0  0  0
    1.6460    1.7760    0.0000 C   0  0  0  0  0  0  0  0  0  0  0  0
    1.4350    0.9800    0.0000 C   0  0  0  0  0  0  0  0  0  0  0  0
    2.0220    0.4010    0.0000 C   0  0  0  0  0  0  0  0  0  0  0  0
    2.8180    0.6200    0.0000 C   0  0  0  0  0  0  0  0  0  0  0  0
    3.0250    1.4230    0.0000 C   0  0  0  0  0  0  0  0  0  0  0  0
    2.4370    1.9990    0.0000 C   0  0  0  0  0  0  0  0  0  0  0  0
   -4.2710   -0.5870    0.0000 O   0  0  0  0  0  0  0  0  0  0  0  0
    3.4060    0.0410    0.0000 C   0  0  0  0  0  0  0  0  0  0  0  0
    3.1990   -0.7570    0.0000 F   0  0  0  0  0  0  0  0  0  0  0  0
    4.2290    0.0420    0.0000 F   0  0  0  0  0  0  0  0  0  0  0  0
    3.8120   -0.6710    0.0000 F   0  0  0  0  0  0  0  0  0  0  0  0
  7  8  1  0  0  0  0
  8  9  1  0  0  0  0
  9 10  1  0  0  0  0
  7 11  1  1  0  0  0
 11 12  1  0  0  0  0
 11 13  2  0  0  0  0
  8 14  1  0  0  0  0
 14 15  2  0  0  0  0
 14 16  2  0  0  0  0
 14 17  1  0  0  0  0
 17 18  2  0  0  0  0
 18 19  1  0  0  0  0
 19 20  2  0  0  0  0
 20 21  1  0  0  0  0
 21 22  2  0  0  0  0
 22 17  1  0  0  0  0
 20 23  1  0  0  0  0
 23 24  1  0  0  0  0
 24 25  2  0  0  0  0
 25 26  1  0  0  0  0
 26 27  2  0  0  0  0
 27 28  1  0  0  0  0
 28 29  2  0  0  0  0
 29 24  1  0  0  0  0
  1  2  2  0  0  0  0
  2  3  1  0  0  0  0
  3  6  2  0  0  0  0
  5  4  2  0  0  0  0
  4  1  1  0  0  0  0
  5  6  1  0  0  0  0
  5 10  1  0  0  0  0
  6  7  1  0  0  0  0
 12 30  1  0  0  0  0
 27 31  1  0  0  0  0
 31 32  1  0  0  0  0
 31 33  1  0  0  0  0
 31 34  1  0  0  0  0
M  END
>  <ID_NEW>
CPDMM2046

>  <pIC50>
8.522878745280337

$$$$

  SciTegic12180812482D

 30 33  0  0  0  0            999 V2000
   -5.7056    3.2792    0.0000 C   0  0
   -5.7068    2.4519    0.0000 C   0  0
   -4.9919    2.0390    0.0000 C   0  0
   -4.9937    3.6920    0.0000 C   0  0
   -4.2784    3.2829    0.0000 C   0  0
   -4.2749    2.4498    0.0000 C   0  0
   -3.5558    2.0385    0.0000 C   0  0
   -2.8354    2.4557    0.0000 N   0  0
   -2.8388    3.2888    0.0000 C   0  0
   -3.5626    3.7047    0.0000 C   0  0
   -3.5535    1.2135    0.0000 C   0  0
   -4.2654    0.7954    0.0000 N   0  0
   -2.8365    0.7992    0.0000 O   0  0
   -2.1198    2.0451    0.0000 S   0  0
   -2.8375    1.6375    0.0000 O   0  0
   -1.7125    1.3334    0.0000 O   0  0
   -1.3250    2.2625    0.0000 C   0  0
   -0.7405    1.6802    0.0000 C   0  0
    0.0537    1.8971    0.0000 C   0  0
    0.2634    2.6948    0.0000 C   0  0
   -0.3272    3.2755    0.0000 C   0  0
   -1.1191    3.0556    0.0000 C   0  0
    1.0589    2.9136    0.0000 O   0  0
    1.6461    2.3341    0.0000 C   0  0
    1.4355    1.5388    0.0000 C   0  0
    2.0218    0.9596    0.0000 C   0  0
    2.8183    1.1782    0.0000 N   0  0
    3.0251    1.9812    0.0000 C   0  0
    2.4372    2.5570    0.0000 C   0  0
   -4.2708   -0.0292    0.0000 O   0  0
 22 17  1  0
 20 23  1  0
 23 24  1  0
 24 25  2  0
 25 26  1  0
 26 27  2  0
 27 28  1  0
 28 29  2  0
 29 24  1  0
  1  2  2  0
  2  3  1  0
  3  6  2  0
  5  4  2  0
  4  1  1  0
  5  6  1  0
  5 10  1  0
  6  7  1  0
 12 30  1  0
  7  8  1  0
  8  9  1  0
  9 10  1  0
  7 11  1  0
 11 12  1  0
 11 13  2  0
  8 14  1  0
 14 15  2  0
 14 16  2  0
 14 17  1  0
 17 18  2  0
 18 19  1  0
 19 20  2  0
 20 21  1  0
 21 22  2  0
M  END
>  <ID_NEW>
CPDMM2047

>  <pIC50>
8.522878745280337

$$$$

  SciTegic12180812512D

 28 31  0  0  0  0            999 V2000
   -3.9375   -2.0292    0.0000 C   0  0
   -3.6042   -1.4208    0.0000 C   0  0
   -3.0167   -1.0083    0.0000 C   0  0
   -3.2250   -1.6708    0.0000 C   0  0
   -3.1625   -0.2625    0.0000 C   0  0
   -2.2875   -1.4375    0.0000 C   0  0
   -2.5583   -2.0083    0.0000 N   0  0
   -1.4988   -1.1953    0.0000 C   0  0
   -0.8948   -1.7573    0.0000 N   0  0
   -1.3142   -0.3913    0.0000 O   0  0
   -0.1061   -1.5151    0.0000 O   0  0
   -2.2913   -2.7889    0.0000 S   0  0
   -2.8338   -3.4105    0.0000 O   0  0
   -1.4818   -2.9480    0.0000 C   0  0
   -3.1144   -2.8448    0.0000 O   0  0
   -1.2192   -3.7290    0.0000 C   0  0
   -0.4105   -3.8882    0.0000 N   0  0
    0.1329   -3.2663    0.0000 C   0  0
   -0.1380   -2.4825    0.0000 C   0  0
   -0.9460   -2.3270    0.0000 C   0  0
    0.9426   -3.4243    0.0000 O   0  0
    1.2107   -4.2045    0.0000 C   0  0
    0.6647   -4.8240    0.0000 C   0  0
    0.9321   -5.6036    0.0000 C   0  0
    1.7426   -5.7622    0.0000 C   0  0
    2.2851   -5.1350    0.0000 C   0  0
    2.0148   -4.3578    0.0000 C   0  0
    2.0117   -6.5421    0.0000 Cl  0  0
  3  6  1  0
 12 14  1  0
  6  7  1  0
 12 15  2  0
  7  4  1  0
 14 16  2  0
 16 17  1  0
  6  8  1  0
 17 18  2  0
  1  2  1  0
 18 19  1  0
  8  9  1  0
 19 20  2  0
 20 14  1  0
  2  3  1  0
 18 21  1  0
  8 10  2  0
 21 22  1  0
  1  4  1  0
 22 23  2  0
  9 11  1  0
 23 24  1  0
  4  5  1  0
 24 25  2  0
  7 12  1  0
 25 26  1  0
  5  3  1  0
 26 27  2  0
 27 22  1  0
 12 13  2  0
 25 28  1  0
M  END
>  <ID_NEW>
CPDMM2048

>  <pIC50>
8.522878745280337

$$$$

  SciTegic12180812562D

 34 37  0  0  0  0            999 V2000
    2.9569   -2.7333    0.0000 C   0  0
    2.9557   -3.4856    0.0000 C   0  0
    3.6039   -3.8610    0.0000 C   0  0
    3.6021   -2.3580    0.0000 C   0  0
    4.2550   -2.7296    0.0000 C   0  0
    4.2584   -3.4877    0.0000 C   0  0
    4.9109   -3.8615    0.0000 C   0  0
    5.5646   -3.4818    0.0000 N   0  0
    5.5612   -2.7279    0.0000 C   0  0
    4.9041   -2.3495    0.0000 C   0  0
    4.9132   -4.6115    0.0000 C   0  0
    4.2665   -4.9884    0.0000 O   0  0
    5.5620   -4.9846    0.0000 N   0  0
    5.5643   -5.7345    0.0000 O   0  0
    6.2177   -3.8549    0.0000 S   0  0
    6.2199   -4.6048    0.0000 O   0  0
    6.8644   -3.4821    0.0000 C   0  0
    5.6859   -4.3898    0.0000 O   0  0
    7.5136   -3.8583    0.0000 C   0  0
    8.1597   -3.4820    0.0000 N   0  0
    8.1579   -2.7312    0.0000 C   0  0
    7.5040   -2.3583    0.0000 C   0  0
    6.8566   -2.7327    0.0000 C   0  0
    8.8082   -2.3533    0.0000 O   0  0
    9.4577   -2.7254    0.0000 C   0  0
    9.4589   -3.4761    0.0000 C   0  0
   10.1076   -3.8481    0.0000 C   0  0
   10.7588   -3.4702    0.0000 C   0  0
   10.7528   -2.7159    0.0000 C   0  0
   10.0995   -2.3476    0.0000 C   0  0
   11.4088   -3.8413    0.0000 O   0  0
   11.4133   -4.5913    0.0000 C   0  0
    3.6014   -4.6100    0.0000 F   0  0
    3.5985   -1.6068    0.0000 C   0  0
 15 17  1  0
  7  8  1  0
 15 18  2  0
  8  9  1  0
 17 19  2  0
  9 10  1  0
 19 20  1  0
  5  6  1  0
 20 21  2  0
 21 22  1  0
 22 23  2  0
 23 17  1  0
 21 24  1  0
  2  3  1  0
 24 25  1  0
  7 11  1  0
 25 26  2  0
  3  6  2  0
 26 27  1  0
 11 12  2  0
 27 28  2  0
  1  2  2  0
 28 29  1  0
 11 13  1  0
 29 30  2  0
 30 25  1  0
  5  4  2  0
 28 31  1  0
 13 14  1  0
 31 32  1  0
  4  1  1  0
  8 15  1  0
  5 10  1  0
 15 16  2  0
  6  7  1  0
  3 33  1  0
  4 34  1  0
M  END
>  <ID_NEW>
CPDMM2049

>  <pIC50>
8.522878745280337

$$$$

  SciTegic12180812392D

 32 35  0  0  0  0            999 V2000
   -3.3417    1.2167    0.0000 C   0  0
   -3.3417    0.3917    0.0000 C   0  0
   -2.6296   -0.0167    0.0000 C   0  0
   -2.6296    1.6333    0.0000 C   0  0
   -1.9176    1.2167    0.0000 C   0  0
   -1.9166    0.3917    0.0000 C   0  0
   -1.2055   -0.0176    0.0000 C   0  0
   -0.4910    0.3935    0.0000 N   0  0
   -0.4920    1.2185    0.0000 C   0  0
   -1.2076    1.6324    0.0000 C   0  0
   -1.2056   -0.8426    0.0000 C   0  0
    0.2235   -0.0191    0.0000 S   0  0
   -0.1958   -0.7292    0.0000 O   0  0
    0.6292   -0.7292    0.0000 O   0  0
    1.0167    0.2000    0.0000 C   0  0
    1.6018   -0.3801    0.0000 C   0  0
    2.3944   -0.1616    0.0000 C   0  0
    2.6019    0.6356    0.0000 C   0  0
    2.0107    1.2141    0.0000 C   0  0
    1.2204    0.9926    0.0000 C   0  0
    3.3969    0.8563    0.0000 C   0  0
    3.9821    0.2762    0.0000 C   0  0
    4.7764    0.4964    0.0000 C   0  0
    4.9834    1.2959    0.0000 C   0  0
    4.3899    1.8751    0.0000 C   0  0
    3.5979    1.6519    0.0000 C   0  0
    5.7781    1.5176    0.0000 N   0  3
    5.9876    2.3191    0.0000 O   0  0
    6.3716    0.9427    0.0000 O   0  5
   -1.9193   -1.2564    0.0000 N   0  0
   -0.4904   -1.2566    0.0000 O   0  0
   -1.9178   -2.0814    0.0000 O   0  0
  3  6  1  0
 15 16  2  0
  5  4  1  0
 16 17  1  0
  5 10  1  0
 17 18  2  0
  6  7  1  0
 18 19  1  0
  7  8  1  0
 19 20  2  0
 20 15  1  0
  8  9  1  0
 18 21  1  0
  9 10  1  0
 21 22  2  0
  5  6  1  0
 22 23  1  0
  7 11  1  0
 23 24  2  0
 24 25  1  0
  8 12  1  0
 25 26  2  0
 26 21  1  0
  1  2  1  0
 24 27  1  0
 12 13  2  0
  1  4  1  0
 27 28  2  0
 27 29  1  0
 12 14  2  0
  2  3  1  0
 11 30  1  0
 11 31  2  0
 12 15  1  0
 30 32  1  0
M  CHG  2  27   1  29  -1
M  END
>  <ID_NEW>
CPDMM2050

>  <pIC50>
8.494850021680094

$$$$

  SciTegic12180812542D

 33 36  0  0  0  0            999 V2000
    3.4444   -3.6500    0.0000 C   0  0
    3.4432   -4.4023    0.0000 C   0  0
    4.0997   -4.7819    0.0000 C   0  0
    4.0979   -3.2705    0.0000 C   0  0
    4.7508   -3.6463    0.0000 C   0  0
    4.7496   -4.4040    0.0000 C   0  0
    5.4001   -4.7795    0.0000 C   0  0
    6.0563   -4.4018    0.0000 N   0  0
    6.0574   -3.6483    0.0000 C   0  0
    5.4024   -3.2641    0.0000 C   0  0
    5.3978   -5.5336    0.0000 C   0  0
    4.7447   -5.9066    0.0000 N   0  0
    6.0486   -5.9106    0.0000 O   0  0
    4.7424   -6.6608    0.0000 O   0  0
    6.7071   -4.7830    0.0000 S   0  0
    7.0792   -4.1250    0.0000 O   0  0
    6.3250   -5.4292    0.0000 O   0  0
    7.3584   -5.1542    0.0000 C   0  0
    7.3565   -5.9033    0.0000 C   0  0
    8.0027   -6.2786    0.0000 C   0  0
    8.6500   -5.9016    0.0000 C   0  0
    8.6465   -5.1535    0.0000 C   0  0
    7.9996   -4.7820    0.0000 C   0  0
    9.3028   -6.2791    0.0000 C   0  0
    9.3034   -7.0344    0.0000 C   0  0
    9.9596   -7.4077    0.0000 C   0  0
   10.6116   -7.0309    0.0000 C   0  0
   10.6069   -6.2725    0.0000 C   0  0
    9.9543   -5.9030    0.0000 C   0  0
   11.2651   -7.4033    0.0000 Cl  0  0
    4.1006   -5.5402    0.0000 F   0  0
    4.0964   -2.5172    0.0000 C   0  0
    4.7481   -2.1393    0.0000 C   0  0
  5  4  2  0
 15 16  2  0
  4  1  1  0
 15 17  2  0
  5 10  1  0
 15 18  1  0
 18 19  2  0
  6  7  1  0
 19 20  1  0
  7  8  1  0
 20 21  2  0
  8  9  1  0
 21 22  1  0
  9 10  1  0
 22 23  2  0
 23 18  1  0
  5  6  1  0
  7 11  1  0
 24 25  2  0
 11 12  1  0
 25 26  1  0
  2  3  1  0
 26 27  2  0
 11 13  2  0
 27 28  1  0
  3  6  2  0
 28 29  2  0
 29 24  1  0
 21 24  1  0
 12 14  1  0
 27 30  1  0
  3 31  1  0
  1  2  2  0
  4 32  1  0
  8 15  1  0
 32 33  1  0
M  END
>  <ID_NEW>
CPDMM2051

>  <pIC50>
8.494850021680094

$$$$

  -MTS-   10172316422D 0   0.00000     0.00000     0

 34 37  0  0  1  0  0  0  0  0999 V2000
   -4.4010    3.3870    0.0000 C   0  0  0  0  0  0  0  0  0  0  0  0
   -4.4030    2.5600    0.0000 C   0  0  0  0  0  0  0  0  0  0  0  0
   -3.6880    2.1470    0.0000 C   0  0  0  0  0  0  0  0  0  0  0  0
   -3.6900    3.8000    0.0000 C   0  0  0  0  0  0  0  0  0  0  0  0
   -2.9740    3.3910    0.0000 C   0  0  0  0  0  0  0  0  0  0  0  0
   -2.9710    2.5580    0.0000 C   0  0  0  0  0  0  0  0  0  0  0  0
   -2.2520    2.1470    0.0000 C   0  0  1  0  0  0  0  0  0  0  0  0
   -1.5310    2.5640    0.0000 N   0  0  0  0  0  0  0  0  0  0  0  0
   -1.5350    3.3970    0.0000 C   0  0  0  0  0  0  0  0  0  0  0  0
   -2.2580    3.8130    0.0000 C   0  0  0  0  0  0  0  0  0  0  0  0
   -5.1160    3.8000    0.0000 O   0  0  0  0  0  0  0  0  0  0  0  0
   -5.8300    3.3870    0.0000 C   0  0  0  0  0  0  0  0  0  0  0  0
   -2.2490    1.3220    0.0000 C   0  0  0  0  0  0  0  0  0  0  0  0
   -2.9610    0.9040    0.0000 N   0  0  0  0  0  0  0  0  0  0  0  0
   -1.5320    0.9070    0.0000 O   0  0  0  0  0  0  0  0  0  0  0  0
   -0.8160    2.1530    0.0000 S   0  0  0  0  0  0  0  0  0  0  0  0
   -0.4710    2.9030    0.0000 O   0  0  0  0  0  0  0  0  0  0  0  0
   -1.1680    1.4070    0.0000 O   0  0  0  0  0  0  0  0  0  0  0  0
    0.6140    2.2440    0.0000 C   0  0  0  0  0  0  0  0  0  0  0  0
   -0.0750    1.7860    0.0000 C   0  0  0  0  0  0  0  0  0  0  0  0
   -0.0230    0.9620    0.0000 C   0  0  0  0  0  0  0  0  0  0  0  0
    0.7180    0.5950    0.0000 C   0  0  0  0  0  0  0  0  0  0  0  0
    1.4080    1.0570    0.0000 C   0  0  0  0  0  0  0  0  0  0  0  0
    1.3520    1.8800    0.0000 C   0  0  0  0  0  0  0  0  0  0  0  0
    2.1490    0.6940    0.0000 O   0  0  0  0  0  0  0  0  0  0  0  0
    2.9260    0.9750    0.0000 C   0  0  0  0  0  0  0  0  0  0  0  0
    3.5580    0.4400    0.0000 C   0  0  0  0  0  0  0  0  0  0  0  0
    4.3360    0.7210    0.0000 C   0  0  0  0  0  0  0  0  0  0  0  0
    4.4810    1.5360    0.0000 C   0  0  0  0  0  0  0  0  0  0  0  0
    3.8440    2.0700    0.0000 C   0  0  0  0  0  0  0  0  0  0  0  0
    3.0690    1.7860    0.0000 C   0  0  0  0  0  0  0  0  0  0  0  0
    5.2570    1.8180    0.0000 C   0  0  0  0  0  0  0  0  0  0  0  0
    6.0270    2.1020    0.0000 N   0  0  0  0  0  0  0  0  0  0  0  0
   -2.9670    0.0790    0.0000 O   0  0  0  0  0  0  0  0  0  0  0  0
  1  2  2  0  0  0  0
  2  3  1  0  0  0  0
  3  6  2  0  0  0  0
  5  4  2  0  0  0  0
  4  1  1  0  0  0  0
  5  6  1  0  0  0  0
  5 10  1  0  0  0  0
  6  7  1  0  0  0  0
  7  8  1  0  0  0  0
  8  9  1  0  0  0  0
  9 10  1  0  0  0  0
  1 11  1  0  0  0  0
 11 12  1  0  0  0  0
  7 13  1  1  0  0  0
 13 14  1  0  0  0  0
 13 15  2  0  0  0  0
  8 16  1  0  0  0  0
 16 17  2  0  0  0  0
 16 18  2  0  0  0  0
 19 20  2  0  0  0  0
 20 21  1  0  0  0  0
 21 22  2  0  0  0  0
 22 23  1  0  0  0  0
 23 24  2  0  0  0  0
 24 19  1  0  0  0  0
 23 25  1  0  0  0  0
 25 26  1  0  0  0  0
 26 27  2  0  0  0  0
 27 28  1  0  0  0  0
 28 29  2  0  0  0  0
 29 30  1  0  0  0  0
 30 31  2  0  0  0  0
 31 26  1  0  0  0  0
 29 32  1  0  0  0  0
 32 33  3  0  0  0  0
 20 16  1  0  0  0  0
 14 34  1  0  0  0  0
M  END
>  <ID_NEW>
CPDMM2052

>  <pIC50>
8.490931954982837

$$$$

  -MTS-   10172316422D 0   0.00000     0.00000     0

 33 36  0  0  1  0  0  0  0  0999 V2000
    3.3040   -3.0830    0.0000 N   0  0  0  0  0  0  0  0  0  0  0  0
    0.4070   -1.9330    0.0000 C   0  0  0  0  0  0  0  0  0  0  0  0
    0.4060   -2.7610    0.0000 C   0  0  0  0  0  0  0  0  0  0  0  0
    1.1210   -3.1740    0.0000 C   0  0  0  0  0  0  0  0  0  0  0  0
    1.1190   -1.5210    0.0000 C   0  0  0  0  0  0  0  0  0  0  0  0
    1.8390   -2.7580    0.0000 C   0  0  0  0  0  0  0  0  0  0  0  0
    1.8340   -1.9300    0.0000 C   0  0  0  0  0  0  0  0  0  0  0  0
    2.4810   -1.4040    0.0000 C   0  0  0  0  0  0  0  0  0  0  0  0
    2.4950   -3.2720    0.0000 C   0  0  2  0  0  0  0  0  0  0  0  0
    3.2930   -1.5780    0.0000 C   0  0  0  0  0  0  0  0  0  0  0  0
    3.6580   -2.3240    0.0000 C   0  0  0  0  0  0  0  0  0  0  0  0
    2.3170   -4.0780    0.0000 C   0  0  0  0  0  0  0  0  0  0  0  0
    1.5300   -4.3260    0.0000 N   0  0  0  0  0  0  0  0  0  0  0  0
    2.9260   -4.6350    0.0000 O   0  0  0  0  0  0  0  0  0  0  0  0
    1.3520   -5.1320    0.0000 O   0  0  0  0  0  0  0  0  0  0  0  0
    3.8250   -3.7230    0.0000 S   0  0  0  0  0  0  0  0  0  0  0  0
    4.6170   -3.5040    0.0000 C   0  0  0  0  0  0  0  0  0  0  0  0
    3.0210   -3.9330    0.0000 O   0  0  0  0  0  0  0  0  0  0  0  0
    3.8170   -4.5460    0.0000 O   0  0  0  0  0  0  0  0  0  0  0  0
    5.2010   -4.0830    0.0000 C   0  0  0  0  0  0  0  0  0  0  0  0
    5.9930   -3.8640    0.0000 C   0  0  0  0  0  0  0  0  0  0  0  0
    6.2000   -3.0680    0.0000 C   0  0  0  0  0  0  0  0  0  0  0  0
    5.6090   -2.4910    0.0000 C   0  0  0  0  0  0  0  0  0  0  0  0
    4.8200   -2.7120    0.0000 C   0  0  0  0  0  0  0  0  0  0  0  0
    6.9940   -2.8470    0.0000 O   0  0  0  0  0  0  0  0  0  0  0  0
    7.5830   -3.4250    0.0000 C   0  0  0  0  0  0  0  0  0  0  0  0
    7.3750   -4.2200    0.0000 C   0  0  0  0  0  0  0  0  0  0  0  0
    7.9640   -4.7980    0.0000 C   0  0  0  0  0  0  0  0  0  0  0  0
    8.7590   -4.5770    0.0000 C   0  0  0  0  0  0  0  0  0  0  0  0
    8.9640   -3.7730    0.0000 C   0  0  0  0  0  0  0  0  0  0  0  0
    8.3740   -3.1990    0.0000 C   0  0  0  0  0  0  0  0  0  0  0  0
    9.3490   -5.1480    0.0000 C   0  0  0  0  0  0  0  0  0  0  0  0
    9.9390   -5.7250    0.0000 N   0  0  0  0  0  0  0  0  0  0  0  0
  1 11  1  0  0  0  0
  9 12  1  1  0  0  0
 12 13  1  0  0  0  0
 12 14  2  0  0  0  0
 13 15  1  0  0  0  0
  1 16  1  0  0  0  0
 16 17  1  0  0  0  0
 16 18  2  0  0  0  0
 16 19  2  0  0  0  0
 17 20  2  0  0  0  0
 20 21  1  0  0  0  0
 21 22  2  0  0  0  0
 22 23  1  0  0  0  0
 23 24  2  0  0  0  0
 24 17  1  0  0  0  0
  2  3  2  0  0  0  0
  3  4  1  0  0  0  0
  4  6  2  0  0  0  0
  7  5  2  0  0  0  0
  5  2  1  0  0  0  0
  6  7  1  0  0  0  0
  7  8  1  0  0  0  0
  6  9  1  0  0  0  0
  8 10  1  0  0  0  0
  9  1  1  0  0  0  0
 10 11  1  0  0  0  0
 22 25  1  0  0  0  0
 25 26  1  0  0  0  0
 26 27  2  0  0  0  0
 27 28  1  0  0  0  0
 28 29  2  0  0  0  0
 29 30  1  0  0  0  0
 30 31  2  0  0  0  0
 31 26  1  0  0  0  0
 32 33  3  0  0  0  0
 29 32  1  0  0  0  0
M  END
>  <ID_NEW>
CPDMM2053

>  <pIC50>
8.490663041982355

$$$$

  SciTegic12180812512D

 32 35  0  0  0  0            999 V2000
   -2.7625   -1.3458    0.0000 C   0  0
   -2.4250   -0.7417    0.0000 C   0  0
   -1.8417   -0.3292    0.0000 C   0  0
   -2.0500   -0.9875    0.0000 C   0  0
   -1.9875    0.4167    0.0000 C   0  0
   -1.1125   -0.7542    0.0000 C   0  0
   -1.3833   -1.3292    0.0000 N   0  0
   -0.3247   -0.5092    0.0000 C   0  0
    0.2813   -1.0690    0.0000 N   0  0
   -0.1429    0.2955    0.0000 O   0  0
    0.8625   -0.4792    0.0000 O   0  0
   -1.1172   -2.1101    0.0000 S   0  0
   -1.6603   -2.7310    0.0000 O   0  0
   -0.3078   -2.2700    0.0000 C   0  0
   -1.9403   -2.1650    0.0000 O   0  0
   -0.0455   -3.0498    0.0000 C   0  0
    0.7630   -3.2099    0.0000 N   0  0
    1.3071   -2.5886    0.0000 C   0  0
    1.0371   -1.8046    0.0000 C   0  0
    0.2292   -1.6481    0.0000 C   0  0
    2.1167   -2.7475    0.0000 O   0  0
    2.3839   -3.5280    0.0000 C   0  0
    1.8403   -4.1460    0.0000 C   0  0
    2.1069   -4.9259    0.0000 C   0  0
    2.9173   -5.0854    0.0000 C   0  0
    3.4604   -4.4588    0.0000 C   0  0
    3.1909   -3.6813    0.0000 C   0  0
    3.1855   -5.8656    0.0000 O   0  0
    2.6440   -6.4880    0.0000 C   0  0
    3.2830   -6.5640    0.0000 F   0  0
    1.8342   -6.3302    0.0000 F   0  0
    2.2596   -7.2179    0.0000 F   0  0
  7  4  1  0
 14 16  2  0
 16 17  1  0
  6  8  1  0
 17 18  2  0
  1  2  1  0
 18 19  1  0
  8  9  1  0
 19 20  2  0
 20 14  1  0
  2  3  1  0
 18 21  1  0
  8 10  2  0
 21 22  1  0
  1  4  1  0
 22 23  2  0
  9 11  1  0
 23 24  1  0
  4  5  1  0
 24 25  2  0
  7 12  1  0
 25 26  1  0
  5  3  1  0
 26 27  2  0
 27 22  1  0
 12 13  2  0
 25 28  1  0
  3  6  1  0
 28 29  1  0
 12 14  1  0
 29 30  1  0
  6  7  1  0
 29 31  1  0
 12 15  2  0
 29 32  1  0
M  END
>  <ID_NEW>
CPDMM2054

>  <pIC50>
8.481486060122112

$$$$

  SciTegic12180812542D

 32 35  0  0  0  0            999 V2000
   -2.2333    2.1750    0.0000 S   0  0
   -2.9500    2.5917    0.0000 N   0  0
   -3.6750    2.1875    0.0000 C   0  0
   -1.5167    1.7625    0.0000 C   0  0
   -3.6750    1.3667    0.0000 C   0  0
   -4.3917    2.6042    0.0000 C   0  0
   -2.9500    3.4333    0.0000 C   0  0
    4.2417    2.5750    0.0000 N   0  0
   -1.8167    2.8958    0.0000 O   0  0
   -2.6417    1.4708    0.0000 O   0  0
   -0.7958    0.5167    0.0000 N   0  0
    3.5167    2.1625    0.0000 C   0  0
   -0.0708    0.9208    0.0000 C   0  0
   -1.5167    0.9333    0.0000 C   0  0
   -4.3917    3.4208    0.0000 C   0  0
   -2.9500    0.9500    0.0000 O   0  0
   -0.8042    2.1750    0.0000 C   0  0
   -3.6750    3.8333    0.0000 C   0  0
   -4.3833    0.9500    0.0000 N   0  0
    0.6417    0.5083    0.0000 O   0  0
    2.8000    1.7458    0.0000 C   0  0
    1.3625    0.9167    0.0000 C   0  0
   -0.0792    1.7625    0.0000 C   0  0
   -4.3833    0.1333    0.0000 O   0  0
    2.7833    0.9167    0.0000 C   0  0
    2.0792    2.1625    0.0000 C   0  0
    1.3667    1.7458    0.0000 C   0  0
    2.0792    0.5042    0.0000 C   0  0
   -5.1000    2.1875    0.0000 C   0  0
   -5.1125    3.8333    0.0000 C   0  0
   -5.8250    2.6042    0.0000 C   0  0
   -5.8333    3.4333    0.0000 C   0  0
 19  5  1  0
 20 13  1  0
 21 26  1  0
 22 20  1  0
 23 17  2  0
 24 19  1  0
 25 28  1  0
 26 27  2  0
 27 22  1  0
 28 22  2  0
 29  6  2  0
 30 15  2  0
 31 29  1  0
 32 30  1  0
 15  6  1  0
 11 13  2  0
 32 31  2  0
 25 21  2  0
  2  1  1  0
  3  2  1  0
  4  1  1  0
  5  3  1  0
  6  3  1  0
  7  2  1  0
  8 12  3  0
  9  1  2  0
 10  1  2  0
 11 14  1  0
 12 21  1  0
 13 23  1  0
 14  4  2  0
 15 18  1  0
 16  5  2  0
 17  4  1  0
 18  7  1  0
M  END
>  <ID_NEW>
CPDMM2055

>  <pIC50>
8.481486060122112

$$$$

  SciTegic12180812492D

 31 34  0  0  0  0            999 V2000
   -4.0349    2.4468    0.0000 C   0  0
   -3.4354    2.7932    0.0000 N   0  0
   -3.4388    3.4846    0.0000 C   0  0
   -4.0376    3.8297    0.0000 C   0  0
   -4.0326    1.7635    0.0000 C   0  0
   -3.4365    1.4159    0.0000 O   0  0
   -4.6290    2.7873    0.0000 C   0  0
   -4.6317    3.4828    0.0000 C   0  0
   -5.2333    3.8261    0.0000 C   0  0
   -5.8327    3.4824    0.0000 C   0  0
   -5.8300    2.7869    0.0000 C   0  0
   -5.2280    2.4391    0.0000 C   0  0
   -4.6258    1.4168    0.0000 N   0  0
   -2.0995    1.7651    0.0000 C   0  0
   -1.4157    1.6811    0.0000 C   0  0
   -1.0074    2.2286    0.0000 C   0  0
   -1.2730    2.8604    0.0000 C   0  0
   -1.9605    2.9408    0.0000 C   0  0
   -2.3694    2.3922    0.0000 C   0  0
   -0.3259    2.1457    0.0000 O   0  0
   -0.0566    1.5159    0.0000 C   0  0
   -0.4701    0.9658    0.0000 C   0  0
   -0.2015    0.3365    0.0000 C   0  0
    0.4808    0.2532    0.0000 C   0  0
    0.8894    0.8053    0.0000 C   0  0
    0.6223    1.4360    0.0000 C   0  0
    0.7469   -0.3763    0.0000 F   0  0
   -2.8354    2.4524    0.0000 S   0  0
   -3.0558    1.8036    0.0000 O   0  0
   -2.3703    2.9494    0.0000 O   0  0
   -4.6333    0.7375    0.0000 O   0  0
  8  4  1  0
  7  1  1  0
  1  2  1  0
  2  3  1  0
  3  4  1  0
  1  5  1  0
  5  6  2  0
  2 28  1  0
  7  8  1  0
  7 12  1  0
  8  9  1  0
  9 10  1  0
 10 11  1  0
 11 12  1  0
  5 13  1  0
 14 15  2  0
 15 16  1  0
 16 17  2  0
 17 18  1  0
 18 19  2  0
 19 14  1  0
 19 28  1  0
 16 20  1  0
 20 21  1  0
 21 22  2  0
 22 23  1  0
 23 24  2  0
 24 25  1  0
 25 26  2  0
 26 21  1  0
 24 27  1  0
 28 29  2  0
 28 30  2  0
 13 31  1  0
M  END
>  <ID_NEW>
CPDMM2056

>  <pIC50>
8.468521082957745

$$$$

  -MTS-   10172316422D 0   0.00000     0.00000     0

 33 36  0  0  1  0  0  0  0  0999 V2000
   -1.6520    0.9280    0.0000 N   0  0  0  0  0  0  0  0  0  0  0  0
   -1.6520    1.7520    0.0000 C   0  0  2  0  0  0  0  0  0  0  0  0
   -2.3720    0.5170    0.0000 C   0  0  0  0  0  0  0  0  0  0  0  0
   -0.9340    0.5170    0.0000 S   0  0  0  0  0  0  0  0  0  0  0  0
   -2.3720    2.1690    0.0000 C   0  0  0  0  0  0  0  0  0  0  0  0
   -0.9340    2.1760    0.0000 C   0  0  0  0  0  0  0  0  0  0  0  0
   -3.0860    0.9280    0.0000 C   0  0  0  0  0  0  0  0  0  0  0  0
   -0.2140    0.1000    0.0000 C   0  0  0  0  0  0  0  0  0  0  0  0
   -0.5240    1.2380    0.0000 O   0  0  0  0  0  0  0  0  0  0  0  0
   -1.3480   -0.2030    0.0000 O   0  0  0  0  0  0  0  0  0  0  0  0
   -3.0860    1.7520    0.0000 C   0  0  0  0  0  0  0  0  0  0  0  0
   -0.2140    1.7650    0.0000 N   0  0  0  0  0  0  0  0  0  0  0  0
   -0.9380    3.0030    0.0000 O   0  0  0  0  0  0  0  0  0  0  0  0
   -3.7930    0.5170    0.0000 C   0  0  0  0  0  0  0  0  0  0  0  0
    0.5000    0.5170    0.0000 C   0  0  0  0  0  0  0  0  0  0  0  0
   -0.2100   -0.7280    0.0000 C   0  0  0  0  0  0  0  0  0  0  0  0
   -3.7930    2.1690    0.0000 C   0  0  0  0  0  0  0  0  0  0  0  0
    0.4970    2.1860    0.0000 O   0  0  0  0  0  0  0  0  0  0  0  0
   -4.5170    0.9280    0.0000 C   0  0  0  0  0  0  0  0  0  0  0  0
    1.2140    0.1000    0.0000 C   0  0  0  0  0  0  0  0  0  0  0  0
    0.5070   -1.1280    0.0000 C   0  0  0  0  0  0  0  0  0  0  0  0
   -4.5170    1.7520    0.0000 C   0  0  0  0  0  0  0  0  0  0  0  0
    1.2170   -0.7280    0.0000 C   0  0  0  0  0  0  0  0  0  0  0  0
    1.9340   -1.1410    0.0000 C   0  0  0  0  0  0  0  0  0  0  0  0
    1.9280   -1.9690    0.0000 C   0  0  0  0  0  0  0  0  0  0  0  0
    2.6480   -0.7310    0.0000 C   0  0  0  0  0  0  0  0  0  0  0  0
    2.6450   -2.3900    0.0000 C   0  0  0  0  0  0  0  0  0  0  0  0
    3.3650   -1.1410    0.0000 C   0  0  0  0  0  0  0  0  0  0  0  0
    3.3650   -1.9760    0.0000 C   0  0  0  0  0  0  0  0  0  0  0  0
    4.0830   -2.3930    0.0000 N   0  0  0  0  0  0  0  0  0  0  0  0
    4.0830   -3.2210    0.0000 C   0  0  0  0  0  0  0  0  0  0  0  0
    4.8000   -3.6380    0.0000 C   0  0  0  0  0  0  0  0  0  0  0  0
    3.3620   -3.6340    0.0000 O   0  0  0  0  0  0  0  0  0  0  0  0
  1  2  1  0  0  0  0
  1  3  1  0  0  0  0
  1  4  1  0  0  0  0
  2  5  1  0  0  0  0
  2  6  1  6  0  0  0
  3  7  1  0  0  0  0
  4  8  1  0  0  0  0
  4  9  2  0  0  0  0
  4 10  2  0  0  0  0
  5 11  1  0  0  0  0
  6 12  1  0  0  0  0
  6 13  2  0  0  0  0
  7 14  1  0  0  0  0
  8 15  2  0  0  0  0
  8 16  1  0  0  0  0
 11 17  1  0  0  0  0
 12 18  1  0  0  0  0
 14 19  2  0  0  0  0
 15 20  1  0  0  0  0
 16 21  2  0  0  0  0
 17 22  2  0  0  0  0
 20 23  2  0  0  0  0
 23 24  1  0  0  0  0
 24 25  2  0  0  0  0
 24 26  1  0  0  0  0
 25 27  1  0  0  0  0
 26 28  2  0  0  0  0
 27 29  2  0  0  0  0
 29 30  1  0  0  0  0
 30 31  1  0  0  0  0
 31 32  1  0  0  0  0
 31 33  2  0  0  0  0
  7 11  2  0  0  0  0
 19 22  1  0  0  0  0
 21 23  1  0  0  0  0
 28 29  1  0  0  0  0
M  END
>  <ID_NEW>
CPDMM2057

>  <pIC50>
8.460409376976186

$$$$

  SciTegic12180812482D

 35 38  0  0  0  0            999 V2000
   -4.3806    2.2792    0.0000 C   0  0
   -4.3818    1.4518    0.0000 C   0  0
   -3.6669    1.0390    0.0000 C   0  0
   -3.6687    2.6920    0.0000 C   0  0
   -2.9534    2.2828    0.0000 C   0  0
   -2.9499    1.4498    0.0000 C   0  0
   -2.2308    1.0385    0.0000 C   0  0
   -1.5104    1.4557    0.0000 N   0  0
   -1.5138    2.2887    0.0000 C   0  0
   -2.2376    2.7046    0.0000 C   0  0
   -5.0952    2.6915    0.0000 N   0  3
   -5.8103    2.2786    0.0000 O   0  0
   -5.0961    3.5163    0.0000 O   0  5
   -2.2285    0.2135    0.0000 C   0  0
   -1.5115   -0.2008    0.0000 O   0  0
   -0.7948    1.0451    0.0000 S   0  0
   -0.7925    0.2201    0.0000 O   0  0
   -1.5958    0.8333    0.0000 O   0  0
   -0.0324    1.3604    0.0000 C   0  0
    0.6218    0.8578    0.0000 C   0  0
    1.3842    1.1730    0.0000 C   0  0
    2.0355    0.6680    0.0000 C   0  0
    2.7973    0.9827    0.0000 C   0  0
    2.9060    1.8014    0.0000 C   0  0
    2.2468    2.3045    0.0000 C   0  0
    1.4876    1.9871    0.0000 C   0  0
    3.6680    2.1177    0.0000 C   0  0
    4.3187    1.6139    0.0000 C   0  0
    5.0801    1.9296    0.0000 C   0  0
    5.1878    2.7484    0.0000 C   0  0
    4.5279    3.2507    0.0000 C   0  0
    3.7691    2.9323    0.0000 C   0  0
    5.9493    3.0657    0.0000 Cl  0  0
   -2.9425   -0.1999    0.0000 N   0  0
   -2.9500   -1.0208    0.0000 O   0  0
 30 31  1  0
  4  1  1  0
 31 32  2  0
 32 27  1  0
  7 14  1  0
 30 33  1  0
  5  6  1  0
 14 15  2  0
  8 16  1  0
 16 17  2  0
  1  2  2  0
 16 18  2  0
 16 19  1  0
  2  3  1  0
 19 20  1  0
  5 10  1  0
 20 21  1  0
  6  7  1  0
 21 22  2  0
  7  8  1  0
 22 23  1  0
  8  9  1  0
 23 24  2  0
  9 10  1  0
 24 25  1  0
  3  6  2  0
 25 26  2  0
 26 21  1  0
  1 11  1  0
 24 27  1  0
 27 28  2  0
  5  4  2  0
 28 29  1  0
 11 12  2  0
 29 30  2  0
 11 13  1  0
 14 34  1  0
 34 35  1  0
M  CHG  2  11   1  13  -1
M  END
>  <ID_NEW>
CPDMM2058

>  <pIC50>
8.455931955649723

$$$$

  SciTegic12180812562D

 35 38  0  0  0  0            999 V2000
    2.6361   -3.8374    0.0000 C   0  0
    2.6349   -4.5898    0.0000 C   0  0
    3.2830   -4.9652    0.0000 C   0  0
    3.2812   -3.4622    0.0000 C   0  0
    3.9341   -3.8338    0.0000 C   0  0
    3.9375   -4.5873    0.0000 C   0  0
    4.5860   -4.9588    0.0000 C   0  0
    5.2358   -4.5814    0.0000 N   0  0
    5.2324   -3.8321    0.0000 C   0  0
    4.5792   -3.4560    0.0000 C   0  0
    4.5883   -5.7088    0.0000 C   0  0
    3.9374   -6.0857    0.0000 O   0  0
    5.2373   -6.0819    0.0000 N   0  0
    5.2395   -6.8319    0.0000 O   0  0
    5.8889   -4.9545    0.0000 S   0  0
    6.5356   -4.5817    0.0000 C   0  0
    5.3572   -5.4894    0.0000 O   0  0
    7.1849   -4.9542    0.0000 C   0  0
    7.8310   -4.5822    0.0000 N   0  0
    7.8292   -3.8313    0.0000 C   0  0
    7.1753   -3.4542    0.0000 C   0  0
    6.5279   -3.8328    0.0000 C   0  0
    8.4754   -3.4534    0.0000 O   0  0
    9.1291   -3.8255    0.0000 C   0  0
    9.1297   -4.5761    0.0000 C   0  0
    9.7783   -4.9481    0.0000 C   0  0
   10.4296   -4.5702    0.0000 C   0  0
   10.4236   -3.8159    0.0000 C   0  0
    9.7702   -3.4476    0.0000 C   0  0
   11.0777   -4.9375    0.0000 O   0  0
   11.0845   -5.6874    0.0000 C   0  0
   11.7357   -6.0565    0.0000 C   0  0
    5.8881   -5.7049    0.0000 O   0  0
    3.2825   -5.7142    0.0000 F   0  0
    3.2777   -2.7110    0.0000 C   0  0
 21 22  2  0
 22 16  1  0
 20 23  1  0
 23 24  1  0
  2  3  1  0
 24 25  2  0
  7 11  1  0
 25 26  1  0
  3  6  2  0
 26 27  2  0
 11 12  2  0
 27 28  1  0
  1  2  2  0
 28 29  2  0
 29 24  1  0
 11 13  1  0
 27 30  1  0
  5  4  2  0
 30 31  1  0
 13 14  1  0
 31 32  1  0
  4  1  1  0
  8 15  1  0
 15 33  2  0
  5 10  1  0
 15 16  1  0
  6  7  1  0
 15 17  2  0
  7  8  1  0
 16 18  2  0
  8  9  1  0
 18 19  1  0
  9 10  1  0
 19 20  2  0
  5  6  1  0
  3 34  1  0
 20 21  1  0
  4 35  1  0
M  END
>  <ID_NEW>
CPDMM2059

>  <pIC50>
8.443697499232712

$$$$

  -MTS-   10172316422D 0   0.00000     0.00000     0

 33 36  0  0  1  0  0  0  0  0999 V2000
   -4.0540    0.7970    0.0000 C   0  0  0  0  0  0  0  0  0  0  0  0
   -4.8400    0.5490    0.0000 N   0  0  0  0  0  0  0  0  0  0  0  0
   -3.4450    0.2400    0.0000 O   0  0  0  0  0  0  0  0  0  0  0  0
   -5.0190   -0.2570    0.0000 O   0  0  0  0  0  0  0  0  0  0  0  0
   -2.5460    1.1510    0.0000 S   0  0  0  0  0  0  0  0  0  0  0  0
   -1.7540    1.3710    0.0000 C   0  0  0  0  0  0  0  0  0  0  0  0
   -3.3500    0.9420    0.0000 O   0  0  0  0  0  0  0  0  0  0  0  0
   -2.5540    0.3290    0.0000 O   0  0  0  0  0  0  0  0  0  0  0  0
   -1.1690    0.7920    0.0000 C   0  0  0  0  0  0  0  0  0  0  0  0
   -0.3780    1.0100    0.0000 C   0  0  0  0  0  0  0  0  0  0  0  0
   -0.1710    1.8070    0.0000 C   0  0  0  0  0  0  0  0  0  0  0  0
   -0.7620    2.3840    0.0000 C   0  0  0  0  0  0  0  0  0  0  0  0
   -1.5510    2.1620    0.0000 C   0  0  0  0  0  0  0  0  0  0  0  0
   -3.8760    1.5990    0.0000 C   0  0  2  0  0  0  0  0  0  0  0  0
   -3.0660    1.7920    0.0000 N   0  0  0  0  0  0  0  0  0  0  0  0
   -2.8300    2.5860    0.0000 C   0  0  0  0  0  0  0  0  0  0  0  0
   -3.4000    3.1910    0.0000 C   0  0  0  0  0  0  0  0  0  0  0  0
   -4.4500    2.1980    0.0000 C   0  0  2  0  0  0  0  0  0  0  0  0
   -4.2130    2.9960    0.0000 C   0  0  1  0  0  0  0  0  0  0  0  0
   -4.7830    3.5980    0.0000 C   0  0  0  0  0  0  0  0  0  0  0  0
   -5.5930    3.4060    0.0000 C   0  0  0  0  0  0  0  0  0  0  0  0
   -5.8300    2.6080    0.0000 C   0  0  0  0  0  0  0  0  0  0  0  0
   -5.2570    2.0010    0.0000 C   0  0  0  0  0  0  0  0  0  0  0  0
    0.6240    2.0280    0.0000 C   0  0  0  0  0  0  0  0  0  0  0  0
    1.2110    1.4490    0.0000 C   0  0  0  0  0  0  0  0  0  0  0  0
    2.0060    1.6700    0.0000 C   0  0  0  0  0  0  0  0  0  0  0  0
    2.2120    2.4700    0.0000 C   0  0  0  0  0  0  0  0  0  0  0  0
    1.6180    3.0480    0.0000 C   0  0  0  0  0  0  0  0  0  0  0  0
    0.8260    2.8250    0.0000 C   0  0  0  0  0  0  0  0  0  0  0  0
    3.0030    2.6950    0.0000 C   0  0  0  0  0  0  0  0  0  0  0  0
    3.7970    2.9180    0.0000 N   0  0  0  0  0  0  0  0  0  0  0  0
   -3.9290    3.9550    0.0000 H   0  0  0  0  0  0  0  0  0  0  0  0
   -4.7300    1.2380    0.0000 H   0  0  0  0  0  0  0  0  0  0  0  0
  2  4  1  0  0  0  0
 15  5  1  0  0  0  0
  5  6  1  0  0  0  0
  5  7  2  0  0  0  0
  5  8  2  0  0  0  0
  6  9  2  0  0  0  0
  9 10  1  0  0  0  0
 10 11  2  0  0  0  0
 11 12  1  0  0  0  0
 12 13  2  0  0  0  0
 13  6  1  0  0  0  0
 14 15  1  0  0  0  0
 14 18  1  0  0  0  0
 15 16  1  0  0  0  0
 16 17  1  0  0  0  0
 17 19  1  0  0  0  0
 14  1  1  1  0  0  0
  1  2  1  0  0  0  0
  1  3  2  0  0  0  0
 18 19  1  0  0  0  0
 18 23  1  0  0  0  0
 19 20  1  0  0  0  0
 20 21  1  0  0  0  0
 21 22  1  0  0  0  0
 22 23  1  0  0  0  0
 11 24  1  0  0  0  0
 24 25  2  0  0  0  0
 25 26  1  0  0  0  0
 26 27  2  0  0  0  0
 27 28  1  0  0  0  0
 28 29  2  0  0  0  0
 29 24  1  0  0  0  0
 30 31  3  0  0  0  0
 27 30  1  0  0  0  0
 19 32  1  6  0  0  0
 18 33  1  6  0  0  0
M  END
>  <ID_NEW>
CPDMM2060

>  <pIC50>
8.426548177964515

$$$$

  SciTegic12180812542D

 32 35  0  0  0  0            999 V2000
    3.4944   -3.8333    0.0000 C   0  0
    3.4933   -4.5815    0.0000 C   0  0
    4.1414   -4.9569    0.0000 C   0  0
    4.1396   -3.4581    0.0000 C   0  0
    4.7883   -3.8297    0.0000 C   0  0
    4.7917   -4.5836    0.0000 C   0  0
    6.0987   -3.8238    0.0000 C   0  0
    5.4415   -3.4454    0.0000 C   0  0
    5.4506   -5.7074    0.0000 C   0  0
    4.7998   -6.0843    0.0000 N   0  0
    6.0996   -6.0804    0.0000 O   0  0
    4.8020   -6.8343    0.0000 O   0  0
    6.1005   -4.5738    0.0000 N   0  0
    6.7491   -4.9473    0.0000 S   0  0
    5.4535   -4.9503    0.0000 C   0  0
    6.7508   -5.6973    0.0000 O   0  0
    7.4002   -4.5708    0.0000 C   0  0
    6.2211   -5.4777    0.0000 O   0  0
    8.0447   -4.9454    0.0000 C   0  0
    8.6953   -4.5696    0.0000 N   0  0
    8.6941   -3.8187    0.0000 C   0  0
    8.0362   -3.4454    0.0000 C   0  0
    7.3927   -3.8235    0.0000 C   0  0
    9.3405   -3.4413    0.0000 O   0  0
    9.9939   -3.8138    0.0000 C   0  0
    9.9917   -4.5636    0.0000 C   0  0
   10.6401   -4.9361    0.0000 C   0  0
   11.2874   -4.5586    0.0000 C   0  0
   11.2861   -3.8044    0.0000 C   0  0
   10.6330   -3.4356    0.0000 C   0  0
    4.1399   -5.7059    0.0000 F   0  0
    4.1372   -2.7104    0.0000 C   0  0
 13 14  1  0
  6 15  1  0
 13 15  1  0
  7  8  1  0
 14 16  2  0
  5  4  2  0
 14 17  1  0
 14 18  2  0
 17 19  2  0
  4  1  1  0
 19 20  1  0
 15  9  1  0
 20 21  2  0
  5  6  1  0
 21 22  1  0
  9 10  1  0
 22 23  2  0
 23 17  1  0
 21 24  1  0
  9 11  2  0
 24 25  1  0
  2  3  1  0
 25 26  2  0
  3  6  2  0
 26 27  1  0
 10 12  1  0
 27 28  2  0
  1  2  2  0
 28 29  1  0
  7 13  1  0
 29 30  2  0
 30 25  1  0
  3 31  1  0
  5  8  1  0
  4 32  1  0
M  END
>  <ID_NEW>
CPDMM2061

>  <pIC50>
8.42021640338319

$$$$

  SciTegic12180812562D

 33 36  0  0  0  0            999 V2000
    3.4902   -4.0208    0.0000 C   0  0
    3.4891   -4.7690    0.0000 C   0  0
    4.1414   -5.1444    0.0000 C   0  0
    4.1396   -3.6456    0.0000 C   0  0
    4.7883   -4.0172    0.0000 C   0  0
    4.7871   -4.7711    0.0000 C   0  0
    5.4374   -5.1488    0.0000 C   0  0
    6.0975   -4.7731    0.0000 N   0  0
    6.0987   -4.0193    0.0000 C   0  0
    5.4398   -3.6369    0.0000 C   0  0
    5.4350   -5.8988    0.0000 C   0  0
    4.7860   -6.2718    0.0000 N   0  0
    6.0858   -6.2758    0.0000 O   0  0
    4.7837   -7.0218    0.0000 O   0  0
    6.7441   -5.1502    0.0000 S   0  0
    6.3625   -5.8000    0.0000 O   0  0
    7.1125   -4.5000    0.0000 O   0  0
    7.3921   -5.5248    0.0000 C   0  0
    7.3935   -6.2719    0.0000 C   0  0
    8.0406   -6.6465    0.0000 C   0  0
    8.6893   -6.2710    0.0000 C   0  0
    8.6862   -5.5168    0.0000 C   0  0
    8.0384   -5.1460    0.0000 C   0  0
    9.3420   -6.6447    0.0000 O   0  0
    9.9875   -6.2667    0.0000 C   0  0
   10.6441   -6.6391    0.0000 C   0  0
   11.2891   -6.2576    0.0000 C   0  0
   11.2822   -5.5051    0.0000 N   0  0
   10.6243   -5.1359    0.0000 C   0  0
    9.9781   -5.5197    0.0000 C   0  0
    4.1421   -5.8970    0.0000 F   0  0
    4.1382   -2.8956    0.0000 C   0  0
    4.7870   -2.5194    0.0000 C   0  0
 27 28  2  0
 28 29  1  0
  5  4  2  0
 29 30  2  0
 30 25  1  0
  3 31  1  0
  4 32  1  0
  4  1  1  0
 32 33  1  0
  5 10  1  0
  8 15  1  0
  6  7  1  0
 15 16  2  0
  7  8  1  0
 15 17  2  0
  8  9  1  0
 15 18  1  0
  9 10  1  0
 18 19  2  0
  5  6  1  0
 19 20  1  0
  7 11  1  0
 20 21  2  0
 21 22  1  0
 11 12  1  0
 22 23  2  0
 23 18  1  0
  2  3  1  0
 21 24  1  0
 11 13  2  0
 24 25  1  0
  3  6  2  0
 25 26  2  0
 12 14  1  0
 26 27  1  0
  1  2  2  0
M  END
>  <ID_NEW>
CPDMM2062

>  <pIC50>
8.4089353929735

$$$$

  -MTS-   10172316422D 0   0.00000     0.00000     0

 32 35  0  0  1  0  0  0  0  0999 V2000
   -2.4350    1.5260    0.0000 S   0  0  0  0  0  0  0  0  0  0  0  0
   -1.7200    1.9390    0.0000 C   0  0  0  0  0  0  0  0  0  0  0  0
   -1.0070    1.5210    0.0000 C   0  0  0  0  0  0  0  0  0  0  0  0
   -0.2930    1.9330    0.0000 C   0  0  0  0  0  0  0  0  0  0  0  0
   -0.2930    2.7590    0.0000 C   0  0  0  0  0  0  0  0  0  0  0  0
   -1.0120    3.1720    0.0000 C   0  0  0  0  0  0  0  0  0  0  0  0
   -1.7230    2.7570    0.0000 C   0  0  0  0  0  0  0  0  0  0  0  0
    0.4210    3.1730    0.0000 O   0  0  0  0  0  0  0  0  0  0  0  0
    1.1360    2.7610    0.0000 C   0  0  0  0  0  0  0  0  0  0  0  0
    1.1340    1.9380    0.0000 C   0  0  0  0  0  0  0  0  0  0  0  0
    1.8490    1.5260    0.0000 C   0  0  0  0  0  0  0  0  0  0  0  0
    2.5640    1.9400    0.0000 C   0  0  0  0  0  0  0  0  0  0  0  0
    2.5600    2.7690    0.0000 C   0  0  0  0  0  0  0  0  0  0  0  0
    1.8450    3.1770    0.0000 C   0  0  0  0  0  0  0  0  0  0  0  0
    3.2790    1.5290    0.0000 F   0  0  0  0  0  0  0  0  0  0  0  0
   -3.0220    0.9430    0.0000 O   0  0  0  0  0  0  0  0  0  0  0  0
   -2.0260    0.8140    0.0000 O   0  0  0  0  0  0  0  0  0  0  0  0
   -5.8310    3.3170    0.0000 C   0  0  0  0  0  0  0  0  0  0  0  0
   -5.8320    2.4890    0.0000 C   0  0  0  0  0  0  0  0  0  0  0  0
   -5.1170    2.0760    0.0000 C   0  0  0  0  0  0  0  0  0  0  0  0
   -5.1190    3.7290    0.0000 C   0  0  0  0  0  0  0  0  0  0  0  0
   -4.4030    3.3200    0.0000 C   0  0  0  0  0  0  0  0  0  0  0  0
   -3.7610    3.8310    0.0000 C   0  0  0  0  0  0  0  0  0  0  0  0
   -2.9590    3.6510    0.0000 C   0  0  0  0  0  0  0  0  0  0  0  0
   -2.5990    2.9160    0.0000 C   0  0  0  0  0  0  0  0  0  0  0  0
   -4.4000    2.4920    0.0000 C   0  0  0  0  0  0  0  0  0  0  0  0
   -2.9530    2.1680    0.0000 N   0  0  0  0  0  0  0  0  0  0  0  0
   -3.7530    1.9820    0.0000 C   0  0  1  0  0  0  0  0  0  0  0  0
   -3.9320    1.1770    0.0000 C   0  0  0  0  0  0  0  0  0  0  0  0
   -4.7190    0.9260    0.0000 N   0  0  0  0  0  0  0  0  0  0  0  0
   -3.3240    0.6150    0.0000 O   0  0  0  0  0  0  0  0  0  0  0  0
   -4.9370    0.1330    0.0000 O   0  0  0  0  0  0  0  0  0  0  0  0
  1  2  1  0  0  0  0
  2  3  2  0  0  0  0
  3  4  1  0  0  0  0
  4  5  2  0  0  0  0
  5  6  1  0  0  0  0
  6  7  2  0  0  0  0
  7  2  1  0  0  0  0
  5  8  1  0  0  0  0
  8  9  1  0  0  0  0
  9 10  2  0  0  0  0
 10 11  1  0  0  0  0
 11 12  2  0  0  0  0
 12 13  1  0  0  0  0
 13 14  2  0  0  0  0
 14  9  1  0  0  0  0
 12 15  1  0  0  0  0
  1 16  2  0  0  0  0
  1 17  2  0  0  0  0
 18 19  2  0  0  0  0
 19 20  1  0  0  0  0
 20 26  2  0  0  0  0
 22 21  2  0  0  0  0
 21 18  1  0  0  0  0
 22 23  1  0  0  0  0
 23 24  1  0  0  0  0
 24 25  1  0  0  0  0
 22 26  1  0  0  0  0
 25 27  1  0  0  0  0
 26 28  1  0  0  0  0
 27 28  1  0  0  0  0
 28 29  1  1  0  0  0
 29 30  1  0  0  0  0
 29 31  2  0  0  0  0
 27  1  1  0  0  0  0
 30 32  1  0  0  0  0
M  END
>  <ID_NEW>
CPDMM2063

>  <pIC50>
8.378200775997332

$$$$

  -MTS-   10172316422D 0   0.00000     0.00000     0

 35 38  0  0  1  0  0  0  0  0999 V2000
   -2.9330    2.1500    0.0000 N   0  0  0  0  0  0  0  0  0  0  0  0
   -5.8310    3.3000    0.0000 C   0  0  0  0  0  0  0  0  0  0  0  0
   -5.8320    2.4730    0.0000 C   0  0  0  0  0  0  0  0  0  0  0  0
   -5.1170    2.0600    0.0000 C   0  0  0  0  0  0  0  0  0  0  0  0
   -5.1190    3.7130    0.0000 C   0  0  0  0  0  0  0  0  0  0  0  0
   -4.3980    2.4760    0.0000 C   0  0  0  0  0  0  0  0  0  0  0  0
   -4.4030    3.3040    0.0000 C   0  0  0  0  0  0  0  0  0  0  0  0
   -3.7560    3.8300    0.0000 C   0  0  0  0  0  0  0  0  0  0  0  0
   -3.7420    1.9610    0.0000 C   0  0  2  0  0  0  0  0  0  0  0  0
   -2.9440    3.6550    0.0000 C   0  0  0  0  0  0  0  0  0  0  0  0
   -2.5790    2.9090    0.0000 C   0  0  0  0  0  0  0  0  0  0  0  0
   -3.9200    1.1560    0.0000 C   0  0  0  0  0  0  0  0  0  0  0  0
   -4.7070    0.9070    0.0000 N   0  0  0  0  0  0  0  0  0  0  0  0
   -3.3120    0.5980    0.0000 O   0  0  0  0  0  0  0  0  0  0  0  0
   -4.8850    0.1010    0.0000 O   0  0  0  0  0  0  0  0  0  0  0  0
   -2.4130    1.5100    0.0000 S   0  0  0  0  0  0  0  0  0  0  0  0
   -1.6210    1.7290    0.0000 C   0  0  0  0  0  0  0  0  0  0  0  0
   -3.2170    1.3000    0.0000 O   0  0  0  0  0  0  0  0  0  0  0  0
   -2.4210    0.6870    0.0000 O   0  0  0  0  0  0  0  0  0  0  0  0
   -1.0360    1.1500    0.0000 C   0  0  0  0  0  0  0  0  0  0  0  0
   -0.2450    1.3690    0.0000 C   0  0  0  0  0  0  0  0  0  0  0  0
   -0.0380    2.1650    0.0000 C   0  0  0  0  0  0  0  0  0  0  0  0
   -0.6290    2.7430    0.0000 C   0  0  0  0  0  0  0  0  0  0  0  0
   -1.4180    2.5210    0.0000 C   0  0  0  0  0  0  0  0  0  0  0  0
    0.7570    2.3860    0.0000 O   0  0  0  0  0  0  0  0  0  0  0  0
    1.3460    1.8090    0.0000 C   0  0  0  0  0  0  0  0  0  0  0  0
    1.1380    1.0130    0.0000 C   0  0  0  0  0  0  0  0  0  0  0  0
    1.7260    0.4360    0.0000 C   0  0  0  0  0  0  0  0  0  0  0  0
    2.5220    0.6570    0.0000 C   0  0  0  0  0  0  0  0  0  0  0  0
    2.7260    1.4600    0.0000 C   0  0  0  0  0  0  0  0  0  0  0  0
    2.1370    2.0340    0.0000 C   0  0  0  0  0  0  0  0  0  0  0  0
    3.1120    0.0800    0.0000 S   0  0  0  0  0  0  0  0  0  0  0  0
    3.6920   -0.5000    0.0000 C   0  0  0  0  0  0  0  0  0  0  0  0
    3.6920    0.6710    0.0000 O   0  0  0  0  0  0  0  0  0  0  0  0
    2.5210   -0.5000    0.0000 O   0  0  0  0  0  0  0  0  0  0  0  0
  9 12  1  1  0  0  0
 12 13  1  0  0  0  0
 12 14  2  0  0  0  0
 13 15  1  0  0  0  0
  1 16  1  0  0  0  0
 16 17  1  0  0  0  0
 16 18  2  0  0  0  0
 16 19  2  0  0  0  0
 17 20  2  0  0  0  0
 20 21  1  0  0  0  0
 21 22  2  0  0  0  0
 22 23  1  0  0  0  0
 23 24  2  0  0  0  0
 24 17  1  0  0  0  0
  2  3  2  0  0  0  0
  3  4  1  0  0  0  0
  4  6  2  0  0  0  0
  7  5  2  0  0  0  0
  5  2  1  0  0  0  0
  6  7  1  0  0  0  0
  7  8  1  0  0  0  0
  6  9  1  0  0  0  0
  8 10  1  0  0  0  0
  9  1  1  0  0  0  0
 10 11  1  0  0  0  0
 22 25  1  0  0  0  0
 25 26  1  0  0  0  0
 26 27  2  0  0  0  0
 27 28  1  0  0  0  0
 28 29  2  0  0  0  0
 29 30  1  0  0  0  0
 30 31  2  0  0  0  0
 31 26  1  0  0  0  0
 29 32  1  0  0  0  0
 32 33  1  0  0  0  0
 32 34  2  0  0  0  0
 32 35  2  0  0  0  0
  1 11  1  0  0  0  0
M  END
>  <ID_NEW>
CPDMM2064

>  <pIC50>
8.368150537840181

$$$$

  SciTegic12180813012D

 34 37  0  0  0  0            999 V2000
   -5.9958    1.7958    0.0000 S   0  0
   -6.7292    1.7958    0.0000 N   0  0
   -7.1042    1.1625    0.0000 C   0  0
   -7.8417    1.1583    0.0000 C   0  0
   -6.7292    0.5125    0.0000 C   0  0
   -8.2167    1.7958    0.0000 C   0  0
   -7.0958    2.4333    0.0000 C   0  0
   -5.2667    1.8000    0.0000 C   0  0
   -1.1458   -1.4000    0.0000 N   0  0
   -6.0000    1.0625    0.0000 O   0  0
   -5.9958    2.5375    0.0000 O   0  0
   -8.2042    0.5125    0.0000 C   0  0
   -1.5333   -0.7542    0.0000 C   0  0
   -7.8417    2.4333    0.0000 C   0  0
   -5.9958    0.5250    0.0000 O   0  0
   -8.9542    1.7958    0.0000 C   0  0
   -7.0917   -0.1125    0.0000 N   0  0
   -4.8958    2.4333    0.0000 C   0  0
   -4.8917    1.1708    0.0000 C   0  0
   -3.0333    1.8083    0.0000 O   0  0
   -1.9125   -0.1125    0.0000 C   0  0
   -9.3167    1.1583    0.0000 C   0  0
   -3.7708    1.8000    0.0000 C   0  0
   -2.6625    1.1708    0.0000 C   0  0
   -8.9417    0.5125    0.0000 C   0  0
   -4.1458    2.4458    0.0000 C   0  0
   -4.1417    1.1708    0.0000 C   0  0
   -6.7333   -0.7542    0.0000 O   0  0
   -1.5458    0.5333    0.0000 C   0  0
   -2.6625   -0.1167    0.0000 C   0  0
   -1.9125    1.1708    0.0000 C   0  0
   -3.0333    0.5333    0.0000 C   0  0
  -10.0542    1.1500    0.0000 O   0  0
  -10.4125    0.5083    0.0000 C   0  0
  2  1  1  0
  3  2  1  0
  4  3  1  0
  5  3  1  0
  6 14  1  0
  7  2  1  0
  8  1  1  0
  9 13  3  0
 10  1  2  0
 11  1  2  0
 12  4  2  0
 13 21  1  0
 14  7  1  0
 15  5  2  0
 16  6  2  0
 17  5  1  0
 18  8  1  0
 19  8  2  0
 20 23  1  0
 21 29  1  0
 22 16  1  0
 23 26  1  0
 24 20  1  0
 25 12  1  0
 26 18  2  0
 27 19  1  0
 28 17  1  0
 29 31  2  0
 30 32  1  0
 31 24  1  0
 32 24  2  0
 33 22  1  0
 34 33  1  0
 23 27  2  0
  6  4  1  0
 22 25  2  0
 21 30  2  0
M  END
>  <ID_NEW>
CPDMM2065

>  <pIC50>
8.31875876262441

$$$$

  SciTegic12180812542D

 33 36  0  0  0  0            999 V2000
   -2.2333    2.1750    0.0000 S   0  0
   -2.9500    2.5917    0.0000 N   0  0
   -3.6750    2.1875    0.0000 C   0  0
   -1.5167    1.7625    0.0000 C   0  0
   -3.6750    1.3667    0.0000 C   0  0
   -4.3917    2.6042    0.0000 C   0  0
   -2.9500    3.4333    0.0000 C   0  0
    4.2417    2.5667    0.0000 N   0  0
    2.8000    1.7458    0.0000 C   0  0
   -1.8167    2.8958    0.0000 O   0  0
   -2.6417    1.4708    0.0000 O   0  0
   -0.7958    0.5167    0.0000 N   0  0
    3.5167    2.1625    0.0000 C   0  0
    2.7833    0.9083    0.0000 C   0  0
    2.0708    0.4875    0.0000 C   0  0
   -0.0708    0.9208    0.0000 C   0  0
   -1.5167    0.9333    0.0000 C   0  0
   -4.3917    3.4208    0.0000 C   0  0
    1.3625    0.9167    0.0000 C   0  0
   -2.9500    0.9500    0.0000 O   0  0
    0.6417    0.5083    0.0000 O   0  0
   -0.8042    2.1750    0.0000 C   0  0
   -3.6750    3.8333    0.0000 C   0  0
   -4.3833    0.9500    0.0000 N   0  0
    2.0917    2.1667    0.0000 C   0  0
    3.5083    0.4792    0.0000 F   0  0
   -0.0792    1.7625    0.0000 C   0  0
    1.3667    1.7625    0.0000 C   0  0
   -4.3833    0.1333    0.0000 O   0  0
   -5.1000    2.1875    0.0000 C   0  0
   -5.1125    3.8333    0.0000 C   0  0
   -5.8250    2.6042    0.0000 C   0  0
   -5.8333    3.4333    0.0000 C   0  0
 13  9  1  0
 14 15  1  0
 15 19  2  0
 16 27  1  0
 17  4  2  0
 18 23  1  0
 19 21  1  0
 20  5  2  0
 21 16  1  0
 22  4  1  0
 23  7  1  0
 24  5  1  0
 25 28  2  0
 26 14  1  0
 27 22  2  0
 28 19  1  0
 29 24  1  0
 30  6  2  0
 31 18  2  0
 32 30  1  0
 33 31  1  0
 18  6  1  0
 12 16  2  0
 33 32  2  0
 14  9  2  0
  2  1  1  0
  3  2  1  0
  4  1  1  0
  5  3  1  0
  6  3  1  0
  7  2  1  0
  8 13  3  0
  9 25  1  0
 10  1  2  0
 11  1  2  0
 12 17  1  0
M  END
>  <ID_NEW>
CPDMM2066

>  <pIC50>
8.301029995663981

$$$$

  -MTS-   10172316422D 0   0.00000     0.00000     0

 31 34  0  0  1  0  0  0  0  0999 V2000
    0.5760    2.6040    0.0000 C   0  0  0  0  0  0  0  0  0  0  0  0
    1.2860    2.1920    0.0000 C   0  0  0  0  0  0  0  0  0  0  0  0
    1.9960    2.6010    0.0000 C   0  0  0  0  0  0  0  0  0  0  0  0
    1.9980    3.4220    0.0000 C   0  0  0  0  0  0  0  0  0  0  0  0
    1.2830    3.8330    0.0000 C   0  0  0  0  0  0  0  0  0  0  0  0
    0.5750    3.4210    0.0000 C   0  0  0  0  0  0  0  0  0  0  0  0
   -1.5580    1.3670    0.0000 C   0  0  0  0  0  0  0  0  0  0  0  0
   -0.8470    0.9540    0.0000 C   0  0  0  0  0  0  0  0  0  0  0  0
   -0.1370    1.3630    0.0000 C   0  0  0  0  0  0  0  0  0  0  0  0
   -0.1360    2.1840    0.0000 C   0  0  0  0  0  0  0  0  0  0  0  0
   -0.8510    2.5950    0.0000 C   0  0  0  0  0  0  0  0  0  0  0  0
   -1.5580    2.1840    0.0000 C   0  0  0  0  0  0  0  0  0  0  0  0
   -4.4080    2.1870    0.0000 C   0  0  2  0  0  0  0  0  0  0  0  0
   -4.4080    1.3620    0.0000 C   0  0  1  0  0  0  0  0  0  0  0  0
   -3.6980    0.9520    0.0000 C   0  0  1  0  0  0  0  0  0  0  0  0
   -2.9830    1.3620    0.0000 N   0  0  0  0  0  0  0  0  0  0  0  0
   -2.9830    2.1870    0.0000 C   0  0  0  0  0  0  0  0  0  0  0  0
   -3.6980    2.6020    0.0000 C   0  0  0  0  0  0  0  0  0  0  0  0
   -5.8290    2.1870    0.0000 C   0  0  0  0  0  0  0  0  0  0  0  0
   -5.8290    1.3620    0.0000 C   0  0  0  0  0  0  0  0  0  0  0  0
   -5.1170    0.9540    0.0000 C   0  0  0  0  0  0  0  0  0  0  0  0
   -5.1170    2.6040    0.0000 C   0  0  0  0  0  0  0  0  0  0  0  0
   -4.4210   -0.2790    0.0000 O   0  0  0  0  0  0  0  0  0  0  0  0
   -2.9920   -0.2830    0.0000 N   0  0  0  0  0  0  0  0  0  0  0  0
   -2.2710    0.9500    0.0000 S   0  0  0  0  0  0  0  0  0  0  0  0
   -2.9870    0.5420    0.0000 O   0  0  0  0  0  0  0  0  0  0  0  0
   -1.6870    0.3670    0.0000 O   0  0  0  0  0  0  0  0  0  0  0  0
   -3.0000   -1.1080    0.0000 O   0  0  0  0  0  0  0  0  0  0  0  0
   -3.7040    0.1290    0.0000 C   0  0  0  0  0  0  0  0  0  0  0  0
   -4.4090    0.3620    0.0000 H   0  0  0  0  0  0  0  0  0  0  0  0
   -4.4070    3.1870    0.0000 H   0  0  0  0  0  0  0  0  0  0  0  0
 15 16  1  0  0  0  0
 16 17  1  0  0  0  0
 17 18  1  0  0  0  0
 19 20  1  0  0  0  0
  4  5  1  0  0  0  0
  9 10  2  0  0  0  0
  2  3  1  0  0  0  0
 10 11  1  0  0  0  0
 19 22  1  0  0  0  0
 20 21  1  0  0  0  0
 21 14  1  0  0  0  0
 13 22  1  0  0  0  0
  5  6  2  0  0  0  0
 11 12  2  0  0  0  0
 29 23  2  0  0  0  0
 12  7  1  0  0  0  0
 29 24  1  0  0  0  0
 13 14  1  0  0  0  0
 16 25  1  0  0  0  0
 25  7  1  0  0  0  0
 10  1  1  0  0  0  0
  6  1  1  0  0  0  0
  1  2  2  0  0  0  0
 25 26  2  0  0  0  0
  3  4  2  0  0  0  0
 25 27  2  0  0  0  0
 24 28  1  0  0  0  0
  7  8  2  0  0  0  0
  8  9  1  0  0  0  0
 15 29  1  1  0  0  0
 13 18  1  0  0  0  0
 14 15  1  0  0  0  0
 14 30  1  6  0  0  0
 13 31  1  6  0  0  0
M  END
>  <ID_NEW>
CPDMM2067

>  <pIC50>
8.301029995663981

$$$$

  -MTS-   10172316422D 0   0.00000     0.00000     0

 33 36  0  0  1  0  0  0  0  0999 V2000
   -1.6760    0.8450    0.0000 N   0  0  0  0  0  0  0  0  0  0  0  0
   -1.6720    1.6650    0.0000 C   0  0  2  0  0  0  0  0  0  0  0  0
   -0.9550    0.4340    0.0000 S   0  0  0  0  0  0  0  0  0  0  0  0
   -2.4030    0.4380    0.0000 C   0  0  0  0  0  0  0  0  0  0  0  0
   -2.3900    2.0900    0.0000 C   0  0  0  0  0  0  0  0  0  0  0  0
   -0.9550    2.0860    0.0000 C   0  0  0  0  0  0  0  0  0  0  0  0
   -0.2280    0.0140    0.0000 C   0  0  0  0  0  0  0  0  0  0  0  0
   -1.3760   -0.2860    0.0000 O   0  0  0  0  0  0  0  0  0  0  0  0
   -0.5410    1.1520    0.0000 O   0  0  0  0  0  0  0  0  0  0  0  0
   -3.1170    0.8520    0.0000 C   0  0  0  0  0  0  0  0  0  0  0  0
   -3.1140    1.6720    0.0000 C   0  0  0  0  0  0  0  0  0  0  0  0
   -0.2280    1.6720    0.0000 N   0  0  0  0  0  0  0  0  0  0  0  0
   -0.9550    2.9140    0.0000 O   0  0  0  0  0  0  0  0  0  0  0  0
   -0.2340   -0.8100    0.0000 C   0  0  0  0  0  0  0  0  0  0  0  0
    0.4900    0.4210    0.0000 C   0  0  0  0  0  0  0  0  0  0  0  0
   -3.8280    0.4380    0.0000 C   0  0  0  0  0  0  0  0  0  0  0  0
   -3.8310    2.0860    0.0000 C   0  0  0  0  0  0  0  0  0  0  0  0
    0.4830    2.0930    0.0000 O   0  0  0  0  0  0  0  0  0  0  0  0
    0.4830   -1.2310    0.0000 C   0  0  0  0  0  0  0  0  0  0  0  0
    1.2030    0.0100    0.0000 C   0  0  0  0  0  0  0  0  0  0  0  0
   -4.5450    0.8550    0.0000 C   0  0  0  0  0  0  0  0  0  0  0  0
   -4.5450    1.6690    0.0000 C   0  0  0  0  0  0  0  0  0  0  0  0
    1.2000   -0.8170    0.0000 C   0  0  0  0  0  0  0  0  0  0  0  0
    1.9240   -1.2410    0.0000 C   0  0  0  0  0  0  0  0  0  0  0  0
    1.9140   -2.0620    0.0000 C   0  0  0  0  0  0  0  0  0  0  0  0
    2.6340   -0.8340    0.0000 C   0  0  0  0  0  0  0  0  0  0  0  0
    2.6280   -2.4720    0.0000 C   0  0  0  0  0  0  0  0  0  0  0  0
    3.3480   -1.2450    0.0000 C   0  0  0  0  0  0  0  0  0  0  0  0
    3.3480   -2.0690    0.0000 C   0  0  0  0  0  0  0  0  0  0  0  0
    4.0590   -2.4830    0.0000 S   0  0  0  0  0  0  0  0  0  0  0  0
    4.7720   -2.8930    0.0000 C   0  0  0  0  0  0  0  0  0  0  0  0
    3.6410   -3.1930    0.0000 O   0  0  0  0  0  0  0  0  0  0  0  0
    4.4690   -1.7650    0.0000 O   0  0  0  0  0  0  0  0  0  0  0  0
  1  2  1  0  0  0  0
  1  3  1  0  0  0  0
  1  4  1  0  0  0  0
  2  5  1  0  0  0  0
  2  6  1  6  0  0  0
  3  7  1  0  0  0  0
  3  8  2  0  0  0  0
  3  9  2  0  0  0  0
  4 10  1  0  0  0  0
  5 11  1  0  0  0  0
  6 12  1  0  0  0  0
  6 13  2  0  0  0  0
  7 14  2  0  0  0  0
  7 15  1  0  0  0  0
 10 16  1  0  0  0  0
 11 17  1  0  0  0  0
 12 18  1  0  0  0  0
 14 19  1  0  0  0  0
 15 20  2  0  0  0  0
 16 21  2  0  0  0  0
 17 22  2  0  0  0  0
 19 23  2  0  0  0  0
 23 24  1  0  0  0  0
 24 25  2  0  0  0  0
 24 26  1  0  0  0  0
 25 27  1  0  0  0  0
 26 28  2  0  0  0  0
 27 29  2  0  0  0  0
 29 30  1  0  0  0  0
 30 31  1  0  0  0  0
 30 32  2  0  0  0  0
 30 33  2  0  0  0  0
 10 11  2  0  0  0  0
 20 23  1  0  0  0  0
 21 22  1  0  0  0  0
 28 29  1  0  0  0  0
M  END
>  <ID_NEW>
CPDMM2068

>  <pIC50>
8.301029995663981

$$$$

  -MTS-   10172316422D 0   0.00000     0.00000     0

 35 38  0  0  1  0  0  0  0  0999 V2000
   -2.2680    2.1520    0.0000 S   0  0  0  0  0  0  0  0  0  0  0  0
   -1.5540    2.5640    0.0000 C   0  0  0  0  0  0  0  0  0  0  0  0
   -0.8410    2.1470    0.0000 C   0  0  0  0  0  0  0  0  0  0  0  0
   -0.1270    2.5590    0.0000 C   0  0  0  0  0  0  0  0  0  0  0  0
   -0.1260    3.3850    0.0000 C   0  0  0  0  0  0  0  0  0  0  0  0
   -0.8460    3.7970    0.0000 C   0  0  0  0  0  0  0  0  0  0  0  0
   -1.5570    3.3830    0.0000 C   0  0  0  0  0  0  0  0  0  0  0  0
   -2.8560    1.5680    0.0000 O   0  0  0  0  0  0  0  0  0  0  0  0
   -1.8600    1.4390    0.0000 O   0  0  0  0  0  0  0  0  0  0  0  0
   -5.8330    3.3870    0.0000 C   0  0  0  0  0  0  0  0  0  0  0  0
   -5.8330    2.5620    0.0000 C   0  0  0  0  0  0  0  0  0  0  0  0
   -5.1210    2.1540    0.0000 C   0  0  0  0  0  0  0  0  0  0  0  0
   -5.1210    3.8040    0.0000 C   0  0  0  0  0  0  0  0  0  0  0  0
   -4.4090    3.3870    0.0000 C   0  0  0  0  0  0  0  0  0  0  0  0
   -4.4080    2.5620    0.0000 C   0  0  0  0  0  0  0  0  0  0  0  0
   -3.6970    2.1530    0.0000 C   0  0  2  0  0  0  0  0  0  0  0  0
   -2.9830    2.5640    0.0000 N   0  0  0  0  0  0  0  0  0  0  0  0
   -2.9840    3.3890    0.0000 C   0  0  0  0  0  0  0  0  0  0  0  0
   -3.6990    3.8030    0.0000 C   0  0  0  0  0  0  0  0  0  0  0  0
   -3.6970    1.3280    0.0000 C   0  0  0  0  0  0  0  0  0  0  0  0
   -2.9820    0.9140    0.0000 O   0  0  0  0  0  0  0  0  0  0  0  0
    0.5880    3.7980    0.0000 O   0  0  0  0  0  0  0  0  0  0  0  0
    1.3030    3.3870    0.0000 C   0  0  0  0  0  0  0  0  0  0  0  0
    1.2980    2.5610    0.0000 C   0  0  0  0  0  0  0  0  0  0  0  0
    2.0130    2.1500    0.0000 C   0  0  0  0  0  0  0  0  0  0  0  0
    2.7270    2.5630    0.0000 C   0  0  0  0  0  0  0  0  0  0  0  0
    2.7240    3.3930    0.0000 C   0  0  0  0  0  0  0  0  0  0  0  0
    2.0090    3.8000    0.0000 C   0  0  0  0  0  0  0  0  0  0  0  0
    3.4430    2.1530    0.0000 O   0  0  0  0  0  0  0  0  0  0  0  0
    4.1540    2.5710    0.0000 C   0  0  0  0  0  0  0  0  0  0  0  0
    4.8720    2.1640    0.0000 F   0  0  0  0  0  0  0  0  0  0  0  0
    4.1480    3.3960    0.0000 F   0  0  0  0  0  0  0  0  0  0  0  0
    4.8670    2.9870    0.0000 F   0  0  0  0  0  0  0  0  0  0  0  0
   -4.4120    0.9160    0.0000 N   0  0  0  0  0  0  0  0  0  0  0  0
   -4.4120    0.0910    0.0000 O   0  0  0  0  0  0  0  0  0  0  0  0
  1  2  1  0  0  0  0
  2  3  2  0  0  0  0
  3  4  1  0  0  0  0
  4  5  2  0  0  0  0
  5  6  1  0  0  0  0
  6  7  2  0  0  0  0
  7  2  1  0  0  0  0
  1  8  2  0  0  0  0
  1  9  2  0  0  0  0
 10 11  2  0  0  0  0
 10 13  1  0  0  0  0
 11 12  1  0  0  0  0
 12 15  2  0  0  0  0
 14 13  2  0  0  0  0
 14 15  1  0  0  0  0
 14 19  1  0  0  0  0
 15 16  1  0  0  0  0
 16 17  1  0  0  0  0
 17 18  1  0  0  0  0
 18 19  1  0  0  0  0
 16 20  1  6  0  0  0
 20 21  2  0  0  0  0
 17  1  1  0  0  0  0
  5 22  1  0  0  0  0
 22 23  1  0  0  0  0
 23 24  2  0  0  0  0
 24 25  1  0  0  0  0
 25 26  2  0  0  0  0
 26 27  1  0  0  0  0
 27 28  2  0  0  0  0
 28 23  1  0  0  0  0
 26 29  1  0  0  0  0
 29 30  1  0  0  0  0
 30 31  1  0  0  0  0
 30 32  1  0  0  0  0
 30 33  1  0  0  0  0
 20 34  1  0  0  0  0
 34 35  1  0  0  0  0
M  END
>  <ID_NEW>
CPDMM2069

>  <pIC50>
8.275724130399212

$$$$

  -MTS-   10172316422D 0   0.00000     0.00000     0

 34 37  0  0  1  0  0  0  0  0999 V2000
   -2.2500    1.9210    0.0000 S   0  0  0  0  0  0  0  0  0  0  0  0
   -1.4360    2.0530    0.0000 C   0  0  0  0  0  0  0  0  0  0  0  0
   -0.9150    1.4120    0.0000 C   0  0  0  0  0  0  0  0  0  0  0  0
   -0.1020    1.5440    0.0000 C   0  0  0  0  0  0  0  0  0  0  0  0
    0.1910    2.3160    0.0000 C   0  0  0  0  0  0  0  0  0  0  0  0
   -0.3350    2.9560    0.0000 C   0  0  0  0  0  0  0  0  0  0  0  0
   -1.1470    2.8210    0.0000 C   0  0  0  0  0  0  0  0  0  0  0  0
    1.0060    2.4490    0.0000 O   0  0  0  0  0  0  0  0  0  0  0  0
    1.8170    2.5820    0.0000 C   0  0  0  0  0  0  0  0  0  0  0  0
    2.3370    1.9430    0.0000 C   0  0  0  0  0  0  0  0  0  0  0  0
    3.1480    2.0760    0.0000 C   0  0  0  0  0  0  0  0  0  0  0  0
    3.4400    2.8460    0.0000 C   0  0  0  0  0  0  0  0  0  0  0  0
    2.9140    3.4840    0.0000 C   0  0  0  0  0  0  0  0  0  0  0  0
    2.1040    3.3480    0.0000 C   0  0  0  0  0  0  0  0  0  0  0  0
    4.2530    2.9810    0.0000 S   0  0  0  0  0  0  0  0  0  0  0  0
    5.0660    3.1150    0.0000 C   0  0  0  0  0  0  0  0  0  0  0  0
    4.1150    3.7960    0.0000 O   0  0  0  0  0  0  0  0  0  0  0  0
    4.3800    2.1670    0.0000 O   0  0  0  0  0  0  0  0  0  0  0  0
   -2.8920    1.4030    0.0000 O   0  0  0  0  0  0  0  0  0  0  0  0
   -1.9120    1.1690    0.0000 O   0  0  0  0  0  0  0  0  0  0  0  0
   -5.8310    3.1540    0.0000 C   0  0  0  0  0  0  0  0  0  0  0  0
   -5.8320    2.3270    0.0000 C   0  0  0  0  0  0  0  0  0  0  0  0
   -5.1170    1.9140    0.0000 C   0  0  0  0  0  0  0  0  0  0  0  0
   -5.1190    3.5670    0.0000 C   0  0  0  0  0  0  0  0  0  0  0  0
   -4.4030    3.1580    0.0000 C   0  0  0  0  0  0  0  0  0  0  0  0
   -4.4000    2.3250    0.0000 C   0  0  0  0  0  0  0  0  0  0  0  0
   -3.6810    1.9130    0.0000 C   0  0  1  0  0  0  0  0  0  0  0  0
   -2.9600    2.3310    0.0000 N   0  0  0  0  0  0  0  0  0  0  0  0
   -2.9640    3.1640    0.0000 C   0  0  0  0  0  0  0  0  0  0  0  0
   -3.6880    3.5800    0.0000 C   0  0  0  0  0  0  0  0  0  0  0  0
   -3.6780    1.0880    0.0000 C   0  0  0  0  0  0  0  0  0  0  0  0
   -2.9610    0.6740    0.0000 O   0  0  0  0  0  0  0  0  0  0  0  0
   -4.3920    0.6750    0.0000 N   0  0  0  0  0  0  0  0  0  0  0  0
   -4.3910   -0.1500    0.0000 O   0  0  0  0  0  0  0  0  0  0  0  0
  1  2  1  0  0  0  0
  2  3  2  0  0  0  0
  3  4  1  0  0  0  0
  4  5  2  0  0  0  0
  5  6  1  0  0  0  0
  6  7  2  0  0  0  0
  7  2  1  0  0  0  0
  5  8  1  0  0  0  0
  8  9  1  0  0  0  0
  9 10  2  0  0  0  0
 10 11  1  0  0  0  0
 11 12  2  0  0  0  0
 12 13  1  0  0  0  0
 13 14  2  0  0  0  0
 14  9  1  0  0  0  0
 12 15  1  0  0  0  0
 15 16  1  0  0  0  0
 15 17  2  0  0  0  0
 15 18  2  0  0  0  0
  1 19  2  0  0  0  0
  1 20  2  0  0  0  0
 21 22  2  0  0  0  0
 22 23  1  0  0  0  0
 23 26  2  0  0  0  0
 25 24  2  0  0  0  0
 24 21  1  0  0  0  0
 25 26  1  0  0  0  0
 25 30  1  0  0  0  0
 26 27  1  0  0  0  0
 27 28  1  0  0  0  0
 28 29  1  0  0  0  0
 29 30  1  0  0  0  0
 27 31  1  1  0  0  0
 31 32  2  0  0  0  0
 28  1  1  0  0  0  0
 31 33  1  0  0  0  0
 33 34  1  0  0  0  0
M  END
>  <ID_NEW>
CPDMM2070

>  <pIC50>
8.271883108651014

$$$$

  -MTS-   10172316422D 0   0.00000     0.00000     0

 34 37  0  0  1  0  0  0  0  0999 V2000
   -2.9330    1.8210    0.0000 N   0  0  0  0  0  0  0  0  0  0  0  0
   -5.8310    2.9710    0.0000 C   0  0  0  0  0  0  0  0  0  0  0  0
   -5.8320    2.1430    0.0000 C   0  0  0  0  0  0  0  0  0  0  0  0
   -5.1170    1.7310    0.0000 C   0  0  0  0  0  0  0  0  0  0  0  0
   -5.1190    3.3840    0.0000 C   0  0  0  0  0  0  0  0  0  0  0  0
   -4.3980    2.1460    0.0000 C   0  0  1  0  0  0  0  0  0  0  0  0
   -4.4030    2.9740    0.0000 C   0  0  2  0  0  0  0  0  0  0  0  0
   -3.7560    3.5000    0.0000 C   0  0  0  0  0  0  0  0  0  0  0  0
   -3.7420    1.6320    0.0000 C   0  0  2  0  0  0  0  0  0  0  0  0
   -2.9440    3.3260    0.0000 C   0  0  0  0  0  0  0  0  0  0  0  0
   -2.5790    2.5800    0.0000 C   0  0  0  0  0  0  0  0  0  0  0  0
   -3.9200    0.8260    0.0000 C   0  0  0  0  0  0  0  0  0  0  0  0
   -4.7070    0.5780    0.0000 N   0  0  0  0  0  0  0  0  0  0  0  0
   -3.3120    0.2690    0.0000 O   0  0  0  0  0  0  0  0  0  0  0  0
   -4.8850   -0.2280    0.0000 O   0  0  0  0  0  0  0  0  0  0  0  0
   -2.4130    1.1810    0.0000 S   0  0  0  0  0  0  0  0  0  0  0  0
   -1.6210    1.4000    0.0000 C   0  0  0  0  0  0  0  0  0  0  0  0
   -3.2170    0.9710    0.0000 O   0  0  0  0  0  0  0  0  0  0  0  0
   -2.4210    0.3580    0.0000 O   0  0  0  0  0  0  0  0  0  0  0  0
   -1.0360    0.8210    0.0000 C   0  0  0  0  0  0  0  0  0  0  0  0
   -0.2450    1.0400    0.0000 C   0  0  0  0  0  0  0  0  0  0  0  0
   -0.0380    1.8360    0.0000 C   0  0  0  0  0  0  0  0  0  0  0  0
   -0.6290    2.4130    0.0000 C   0  0  0  0  0  0  0  0  0  0  0  0
   -1.4180    2.1920    0.0000 C   0  0  0  0  0  0  0  0  0  0  0  0
    0.7570    2.0570    0.0000 O   0  0  0  0  0  0  0  0  0  0  0  0
    1.3460    1.4790    0.0000 C   0  0  0  0  0  0  0  0  0  0  0  0
    1.1380    0.6840    0.0000 C   0  0  0  0  0  0  0  0  0  0  0  0
    1.7260    0.1060    0.0000 C   0  0  0  0  0  0  0  0  0  0  0  0
    2.5220    0.3270    0.0000 C   0  0  0  0  0  0  0  0  0  0  0  0
    2.7260    1.1310    0.0000 C   0  0  0  0  0  0  0  0  0  0  0  0
    2.1370    1.7050    0.0000 C   0  0  0  0  0  0  0  0  0  0  0  0
    3.1120   -0.2490    0.0000 F   0  0  0  0  0  0  0  0  0  0  0  0
   -4.4850    3.9710    0.0000 H   0  0  0  0  0  0  0  0  0  0  0  0
   -4.4690    1.1490    0.0000 H   0  0  0  0  0  0  0  0  0  0  0  0
  1 11  1  0  0  0  0
  9 12  1  1  0  0  0
 12 13  1  0  0  0  0
 12 14  2  0  0  0  0
 13 15  1  0  0  0  0
  1 16  1  0  0  0  0
 16 17  1  0  0  0  0
 16 18  2  0  0  0  0
 16 19  2  0  0  0  0
 17 20  2  0  0  0  0
 20 21  1  0  0  0  0
 21 22  2  0  0  0  0
 22 23  1  0  0  0  0
 23 24  2  0  0  0  0
 24 17  1  0  0  0  0
  2  3  1  0  0  0  0
  3  4  1  0  0  0  0
  4  6  1  0  0  0  0
  7  5  1  0  0  0  0
  5  2  1  0  0  0  0
  6  7  1  0  0  0  0
  7  8  1  0  0  0  0
  6  9  1  0  0  0  0
  8 10  1  0  0  0  0
  9  1  1  0  0  0  0
 10 11  1  0  0  0  0
 22 25  1  0  0  0  0
 25 26  1  0  0  0  0
 26 27  2  0  0  0  0
 27 28  1  0  0  0  0
 28 29  2  0  0  0  0
 29 30  1  0  0  0  0
 30 31  2  0  0  0  0
 31 26  1  0  0  0  0
 29 32  1  0  0  0  0
  7 33  1  6  0  0  0
  6 34  1  6  0  0  0
M  END
>  <ID_NEW>
CPDMM2071

>  <pIC50>
8.267847581934786

$$$$

  SciTegic12180812472D

 32 35  0  0  0  0            999 V2000
   -2.4346    1.5262    0.0000 S   0  0
   -1.7201    1.9387    0.0000 C   0  0
   -1.0071    1.5215    0.0000 C   0  0
   -0.2931    1.9334    0.0000 C   0  0
   -0.2927    2.7592    0.0000 C   0  0
   -1.0122    3.1716    0.0000 C   0  0
   -1.7232    2.7574    0.0000 C   0  0
    0.4212    3.1727    0.0000 O   0  0
    1.1363    2.7611    0.0000 C   0  0
    1.1345    1.9376    0.0000 C   0  0
    1.8487    1.5261    0.0000 C   0  0
    2.5636    1.9396    0.0000 C   0  0
    2.5599    2.7689    0.0000 C   0  0
    1.8451    3.1766    0.0000 C   0  0
    3.2792    1.5290    0.0000 F   0  0
   -3.0221    0.9429    0.0000 O   0  0
   -2.0263    0.8137    0.0000 O   0  0
   -5.8306    3.3167    0.0000 C   0  0
   -5.8318    2.4893    0.0000 C   0  0
   -5.1169    2.0765    0.0000 C   0  0
   -5.1187    3.7295    0.0000 C   0  0
   -4.4034    3.3203    0.0000 C   0  0
   -3.7606    3.8311    0.0000 C   0  0
   -2.9593    3.6513    0.0000 C   0  0
   -2.5993    2.9158    0.0000 C   0  0
   -4.4000    2.4919    0.0000 C   0  0
   -2.9527    2.1682    0.0000 N   0  0
   -3.7530    1.9818    0.0000 C   0  0
   -3.9325    1.1766    0.0000 C   0  0
   -4.7187    0.9259    0.0000 N   0  0
   -3.3240    0.6149    0.0000 O   0  0
   -4.9375    0.1333    0.0000 O   0  0
  1  2  1  0
  2  3  2  0
  3  4  1  0
  4  5  2  0
  5  6  1  0
  6  7  2  0
  7  2  1  0
  5  8  1  0
  8  9  1  0
  9 10  2  0
 10 11  1  0
 11 12  2  0
 12 13  1  0
 13 14  2  0
 14  9  1  0
 12 15  1  0
  1 16  2  0
  1 17  2  0
 18 19  2  0
 19 20  1  0
 20 26  2  0
 22 21  2  0
 21 18  1  0
 22 23  1  0
 23 24  1  0
 24 25  1  0
 22 26  1  0
 25 27  1  0
 26 28  1  0
 27 28  1  0
 28 29  1  0
 29 30  1  0
 29 31  2  0
 27  1  1  0
 30 32  1  0
M  END
>  <ID_NEW>
CPDMM2072

>  <pIC50>
8.224316750973955

$$$$

  SciTegic12180812562D

 36 39  0  0  0  0            999 V2000
    1.8584    2.1749    0.0000 C   0  0
    1.0334    2.1791    0.0000 O   0  0
    2.2654    1.4561    0.0000 C   0  0
    3.0896    1.4516    0.0000 C   0  0
    3.5065    2.1645    0.0000 C   0  0
    3.0932    2.8834    0.0000 C   0  0
    2.2703    2.8844    0.0000 C   0  0
    4.3315    2.1614    0.0000 O   0  0
    4.7414    1.4454    0.0000 C   0  0
    5.5664    1.4423    0.0000 C   0  0
    5.9762    0.7263    0.0000 F   0  0
    5.9815    2.1553    0.0000 F   0  0
    6.3584    1.2333    0.0000 F   0  0
    0.2084    2.1791    0.0000 C   0  0
   -0.2023    2.8959    0.0000 C   0  0
   -1.0265    2.8963    0.0000 C   0  0
   -1.4399    2.1812    0.0000 C   0  0
   -1.0229    1.4644    0.0000 C   0  0
   -0.2000    1.4675    0.0000 C   0  0
   -2.2649    2.1801    0.0000 S   0  0
   -2.2708    3.0083    0.0000 O   0  0
   -2.2708    1.3583    0.0000 O   0  0
   -4.4069    2.5878    0.0000 C   0  0
   -4.4069    3.4167    0.0000 C   0  0
   -3.6960    2.1710    0.0000 C   0  0
   -5.1171    2.1772    0.0000 C   0  0
   -3.6960    3.8328    0.0000 C   0  0
   -5.1171    3.8273    0.0000 C   0  0
   -2.9803    2.5878    0.0000 N   0  0
   -3.6960    1.3525    0.0000 C   0  0
   -5.8315    2.5878    0.0000 C   0  0
   -2.9803    3.4167    0.0000 C   0  0
   -5.8315    3.4167    0.0000 C   0  0
   -2.9919    0.9302    0.0000 O   0  0
   -4.4139    0.9460    0.0000 N   0  0
   -4.4208    0.1250    0.0000 O   0  0
  1  2  1  0
  1  3  2  0
  3  4  1  0
  4  5  2  0
  5  6  1  0
  6  7  2  0
  7  1  1  0
  5  8  1  0
  8  9  1  0
  9 10  1  0
 10 11  1  0
 10 12  1  0
 10 13  1  0
  2 14  1  0
 14 15  2  0
 15 16  1  0
 16 17  2  0
 17 18  1  0
 18 19  2  0
 19 14  1  0
 17 20  1  0
 20 21  2  0
 20 22  2  0
 23 24  1  0
 23 25  1  0
 23 26  1  0
 24 27  1  0
 24 28  1  0
 25 29  1  0
 25 30  1  0
 26 31  1  0
 27 32  1  0
 28 33  1  0
 30 34  2  0
 29 32  1  0
 31 33  1  0
 29 20  1  0
 30 35  1  0
 35 36  1  0
M  END
>  <ID_NEW>
CPDMM2073

>  <pIC50>
8.221848749616356

$$$$

  SciTegic12180812302D

 34 37  0  0  0  0            999 V2000
    3.0778   -4.1375    0.0000 C   0  0
    3.0766   -4.9023    0.0000 C   0  0
    3.7372   -5.2819    0.0000 C   0  0
    3.7354   -3.7580    0.0000 C   0  0
    4.3966   -4.1338    0.0000 C   0  0
    5.7188   -4.9018    0.0000 N   0  0
    5.7199   -4.1358    0.0000 C   0  0
    5.0566   -3.7516    0.0000 C   0  0
    6.3779   -5.2830    0.0000 S   0  0
    6.7500   -4.6208    0.0000 O   0  0
    7.0292   -5.6625    0.0000 C   0  0
    7.0273   -6.4200    0.0000 C   0  0
    7.6818   -6.7953    0.0000 C   0  0
    8.3375   -6.4183    0.0000 C   0  0
    8.3340   -5.6577    0.0000 C   0  0
    7.6787   -5.2820    0.0000 C   0  0
    8.9988   -6.7958    0.0000 O   0  0
    9.6580   -6.4149    0.0000 C   0  0
   10.3170   -6.7939    0.0000 C   0  0
   10.9758   -6.4137    0.0000 C   0  0
   10.9743   -5.6503    0.0000 C   0  0
   10.3080   -5.2730    0.0000 C   0  0
    9.6521   -5.6556    0.0000 C   0  0
   11.6289   -5.2684    0.0000 Cl  0  0
    6.0078   -5.9507    0.0000 O   0  0
    5.0577   -5.2795    0.0000 C   0  0
    4.3916   -4.9000    0.0000 C   0  0
    5.0581   -6.0420    0.0000 C   0  0
    5.7186   -6.4250    0.0000 O   0  0
    4.5063   -6.4381    0.0000 N   0  0
    4.5064   -6.9312    0.0000 O   0  0
    3.7398   -6.0438    0.0000 F   0  0
    3.7329   -2.9975    0.0000 C   0  0
    4.3903   -2.6151    0.0000 C   0  0
  5  4  2  0
 19 20  1  0
  9 10  2  0
 20 21  2  0
  4  1  1  0
 21 22  1  0
 22 23  2  0
 23 18  1  0
 21 24  1  0
  5  8  1  0
  9 11  1  0
 11 12  2  0
 12 13  1  0
 13 14  2  0
  6  7  1  0
 14 15  1  0
  7  8  1  0
 15 16  2  0
  9 25  2  0
 16 11  1  0
  6 26  1  0
  5 27  1  0
 26 27  1  0
  2  3  1  0
 26 28  1  0
  3 27  2  0
 14 17  1  0
 28 29  2  0
  1  2  2  0
 28 30  1  0
 17 18  1  0
 30 31  1  0
  3 32  1  0
  6  9  1  0
  4 33  1  0
 18 19  2  0
 33 34  1  0
M  END
>  <ID_NEW>
CPDMM2074

>  <pIC50>
8.221848749616356

$$$$

  -MTS-   10172316422D 0   0.00000     0.00000     0

 37 40  0  0  1  0  0  0  0  0999 V2000
   -0.7520   -1.2860    0.0000 C   0  0  2  0  0  0  0  0  0  0  0  0
   -0.2650   -1.0070    0.0000 N   0  0  0  0  0  0  0  0  0  0  0  0
   -0.2680   -0.4490    0.0000 C   0  0  0  0  0  0  0  0  0  0  0  0
   -0.7580   -0.1700    0.0000 C   0  0  0  0  0  0  0  0  0  0  0  0
   -0.7490   -1.8450    0.0000 C   0  0  0  0  0  0  0  0  0  0  0  0
   -1.2280   -2.1170    0.0000 N   0  0  0  0  0  0  0  0  0  0  0  0
   -0.2660   -2.1170    0.0000 O   0  0  0  0  0  0  0  0  0  0  0  0
    0.6990   -1.5630    0.0000 C   0  0  0  0  0  0  0  0  0  0  0  0
    0.6980   -2.1150    0.0000 C   0  0  0  0  0  0  0  0  0  0  0  0
    1.1750   -2.3940    0.0000 C   0  0  0  0  0  0  0  0  0  0  0  0
    1.6580   -2.1140    0.0000 C   0  0  0  0  0  0  0  0  0  0  0  0
    1.6550   -1.5590    0.0000 C   0  0  0  0  0  0  0  0  0  0  0  0
    1.1730   -1.2830    0.0000 C   0  0  0  0  0  0  0  0  0  0  0  0
    2.1440   -2.3920    0.0000 C   0  0  0  0  0  0  0  0  0  0  0  0
    2.1360   -2.9430    0.0000 C   0  0  0  0  0  0  0  0  0  0  0  0
    2.6210   -3.2210    0.0000 C   0  0  0  0  0  0  0  0  0  0  0  0
    3.0940   -2.9440    0.0000 C   0  0  0  0  0  0  0  0  0  0  0  0
    3.0950   -2.3900    0.0000 C   0  0  0  0  0  0  0  0  0  0  0  0
    2.6130   -2.1120    0.0000 C   0  0  0  0  0  0  0  0  0  0  0  0
    0.2170   -1.2830    0.0000 S   0  0  0  0  0  0  0  0  0  0  0  0
    0.6080   -0.8870    0.0000 O   0  0  0  0  0  0  0  0  0  0  0  0
   -0.1790   -1.6750    0.0000 O   0  0  0  0  0  0  0  0  0  0  0  0
   -1.2330   -1.0130    0.0000 C   0  0  1  0  0  0  0  0  0  0  0  0
   -1.2400   -0.4500    0.0000 C   0  0  2  0  0  0  0  0  0  0  0  0
   -1.7250   -0.1740    0.0000 C   0  0  0  0  0  0  0  0  0  0  0  0
   -2.2080   -0.4510    0.0000 C   0  0  0  0  0  0  0  0  0  0  0  0
   -2.2050   -1.0130    0.0000 C   0  0  0  0  0  0  0  0  0  0  0  0
   -1.7200   -1.2980    0.0000 C   0  0  0  0  0  0  0  0  0  0  0  0
   -1.2220   -2.6750    0.0000 O   0  0  0  0  0  0  0  0  0  0  0  0
    3.5690   -3.2170    0.0000 O   0  0  0  0  0  0  0  0  0  0  0  0
    4.0430   -2.9420    0.0000 C   0  0  0  0  0  0  0  0  0  0  0  0
    4.5180   -3.2150    0.0000 C   0  0  0  0  0  0  0  0  0  0  0  0
    4.9920   -2.9400    0.0000 F   0  0  0  0  0  0  0  0  0  0  0  0
    4.5200   -3.7630    0.0000 F   0  0  0  0  0  0  0  0  0  0  0  0
    4.3750   -2.6860    0.0000 F   0  0  0  0  0  0  0  0  0  0  0  0
   -1.2440    0.5490    0.0000 H   0  0  0  0  0  0  0  0  0  0  0  0
   -1.2260   -2.0130    0.0000 H   0  0  0  0  0  0  0  0  0  0  0  0
 24  4  1  0  0  0  0
 23  1  1  0  0  0  0
  1  2  1  0  0  0  0
  2  3  1  0  0  0  0
  3  4  1  0  0  0  0
  1  5  1  6  0  0  0
  5  6  1  0  0  0  0
  5  7  2  0  0  0  0
  2 20  1  0  0  0  0
  8  9  2  0  0  0  0
  9 10  1  0  0  0  0
 10 11  2  0  0  0  0
 11 12  1  0  0  0  0
 12 13  2  0  0  0  0
 13  8  1  0  0  0  0
 11 14  1  0  0  0  0
 14 15  2  0  0  0  0
 15 16  1  0  0  0  0
 16 17  2  0  0  0  0
 17 18  1  0  0  0  0
 18 19  2  0  0  0  0
 19 14  1  0  0  0  0
  8 20  1  0  0  0  0
 20 21  2  0  0  0  0
 20 22  2  0  0  0  0
 23 24  1  0  0  0  0
 23 28  1  0  0  0  0
 24 25  1  0  0  0  0
 25 26  1  0  0  0  0
 26 27  1  0  0  0  0
 27 28  1  0  0  0  0
  6 29  1  0  0  0  0
 17 30  1  0  0  0  0
 30 31  1  0  0  0  0
 31 32  1  0  0  0  0
 32 33  1  0  0  0  0
 32 34  1  0  0  0  0
 32 35  1  0  0  0  0
 24 36  1  1  0  0  0
 23 37  1  1  0  0  0
M  END
>  <ID_NEW>
CPDMM2075

>  <pIC50>
8.221848749616356

$$$$

  SciTegic12180813002D

 30 33  0  0  0  0            999 V2000
   -0.6975   -0.0562    0.0000 O   0  0
   -1.9884   -0.8201    0.0000 C   0  0
   -1.6608   -2.2838    0.0000 C   0  0
    0.4280   -1.0478    0.0000 C   0  0
   -0.1674   -2.4246    0.0000 C   0  0
    0.7272   -3.6286    0.0000 C   0  0
    2.2172   -3.4558    0.0000 N   0  0
    2.8126   -2.0790    0.0000 C   0  0
    1.9180   -0.8751    0.0000 C   0  0
    0.1319   -5.0054    0.0000 C   0  0
   -1.3581   -5.1782    0.0000 N   0  0
    1.0265   -6.2094    0.0000 O   0  0
    5.7089   -4.5866    0.0000 C   0  0
    4.3893   -3.8735    0.0000 C   0  0
    4.3470   -2.3741    0.0000 C   0  0
    5.6244   -1.5878    0.0000 C   0  0
    6.9441   -2.3009    0.0000 C   0  0
    6.9863   -3.8003    0.0000 C   0  0
    8.2215   -1.5146    0.0000 O   0  0
    9.3972   -2.4460    0.0000 C   0  0
   10.7918   -1.8935    0.0000 C   0  0
   11.9675   -2.8249    0.0000 C   0  0
   11.7488   -4.3089    0.0000 C   0  0
   10.3543   -4.8614    0.0000 C   0  0
    9.1785   -3.9300    0.0000 C   0  0
    3.1119   -4.6598    0.0000 S   0  0
    1.9905   -5.6560    0.0000 O   0  0
    4.0065   -5.8638    0.0000 O   0  0
   12.9246   -5.2403    0.0000 F   0  0
   -1.9535   -6.5549    0.0000 O   0  0
  8  9  1  0
 10 11  1  0
 10 12  2  0
  6 10  1  0
  2  3  1  0
  1  2  1  0
  3  5  1  0
  4  1  1  0
  4  5  1  0
  4  9  1  0
  5  6  1  0
  6  7  1  0
  7  8  1  0
 22 23  2  0
 17 18  2  0
 23 24  1  0
 18 13  1  0
 24 25  2  0
 25 20  1  0
 13 14  2  0
 17 19  1  0
 15 16  2  0
 19 20  1  0
 20 21  2  0
 14 26  1  0
 16 17  1  0
 21 22  1  0
 26 27  2  0
 14 15  1  0
 26 28  2  0
 23 29  1  0
  7 26  1  0
 11 30  1  0
M  END
>  <ID_NEW>
CPDMM2076

>  <pIC50>
8.207608310501746

$$$$

  -MTS-   10172316422D 0   0.00000     0.00000     0

 29 32  0  0  1  0  0  0  0  0999 V2000
   -4.3250    0.8300    0.0000 C   0  0  0  0  0  0  0  0  0  0  0  0
   -5.1110    0.5820    0.0000 N   0  0  0  0  0  0  0  0  0  0  0  0
   -3.7160    0.2730    0.0000 O   0  0  0  0  0  0  0  0  0  0  0  0
   -5.2890   -0.2240    0.0000 O   0  0  0  0  0  0  0  0  0  0  0  0
   -2.8170    1.1850    0.0000 S   0  0  0  0  0  0  0  0  0  0  0  0
   -2.0250    1.4040    0.0000 C   0  0  0  0  0  0  0  0  0  0  0  0
   -3.6210    0.9750    0.0000 O   0  0  0  0  0  0  0  0  0  0  0  0
   -2.8250    0.3620    0.0000 O   0  0  0  0  0  0  0  0  0  0  0  0
   -1.4400    0.8250    0.0000 C   0  0  0  0  0  0  0  0  0  0  0  0
   -0.6490    1.0440    0.0000 C   0  0  0  0  0  0  0  0  0  0  0  0
   -0.4420    1.8400    0.0000 C   0  0  0  0  0  0  0  0  0  0  0  0
   -1.0330    2.4170    0.0000 C   0  0  0  0  0  0  0  0  0  0  0  0
   -1.8220    2.1960    0.0000 C   0  0  0  0  0  0  0  0  0  0  0  0
   -4.1470    1.6320    0.0000 C   0  0  2  0  0  0  0  0  0  0  0  0
   -3.3370    1.8250    0.0000 N   0  0  0  0  0  0  0  0  0  0  0  0
   -3.1010    2.6190    0.0000 C   0  0  0  0  0  0  0  0  0  0  0  0
   -3.6710    3.2250    0.0000 C   0  0  0  0  0  0  0  0  0  0  0  0
   -4.7210    2.2320    0.0000 C   0  0  0  0  0  0  0  0  0  0  0  0
   -4.4840    3.0300    0.0000 C   0  0  0  0  0  0  0  0  0  0  0  0
   -5.1690    3.5020    0.0000 O   0  0  0  0  0  0  0  0  0  0  0  0
   -5.8300    2.9960    0.0000 C   0  0  0  0  0  0  0  0  0  0  0  0
   -5.5530    2.2110    0.0000 C   0  0  0  0  0  0  0  0  0  0  0  0
    0.3530    2.0610    0.0000 C   0  0  0  0  0  0  0  0  0  0  0  0
    0.9410    1.4830    0.0000 C   0  0  0  0  0  0  0  0  0  0  0  0
    1.7350    1.7030    0.0000 C   0  0  0  0  0  0  0  0  0  0  0  0
    1.9410    2.5030    0.0000 C   0  0  0  0  0  0  0  0  0  0  0  0
    1.3470    3.0820    0.0000 C   0  0  0  0  0  0  0  0  0  0  0  0
    0.5560    2.8580    0.0000 C   0  0  0  0  0  0  0  0  0  0  0  0
    2.7360    2.7250    0.0000 Cl  0  0  0  0  0  0  0  0  0  0  0  0
  2  4  1  0  0  0  0
 15  5  1  0  0  0  0
  5  6  1  0  0  0  0
  5  7  2  0  0  0  0
  5  8  2  0  0  0  0
  6  9  2  0  0  0  0
  9 10  1  0  0  0  0
 10 11  2  0  0  0  0
 11 12  1  0  0  0  0
 12 13  2  0  0  0  0
 13  6  1  0  0  0  0
 14 15  1  0  0  0  0
 14 18  1  0  0  0  0
 15 16  1  0  0  0  0
 16 17  1  0  0  0  0
 17 19  1  0  0  0  0
 18 19  2  0  0  0  0
 19 20  1  0  0  0  0
 20 21  1  0  0  0  0
 21 22  2  0  0  0  0
 22 18  1  0  0  0  0
 14  1  1  1  0  0  0
  1  2  1  0  0  0  0
  1  3  2  0  0  0  0
 11 23  1  0  0  0  0
 23 24  2  0  0  0  0
 24 25  1  0  0  0  0
 25 26  2  0  0  0  0
 26 27  1  0  0  0  0
 27 28  2  0  0  0  0
 28 23  1  0  0  0  0
 26 29  1  0  0  0  0
M  END
>  <ID_NEW>
CPDMM2077

>  <pIC50>
8.20418947533259

$$$$

  -MTS-   10172316422D 0   0.00000     0.00000     0

 28 30  0  0  1  0  0  0  0  0999 V2000
   -5.9870    1.7960    0.0000 S   0  0  0  0  0  0  0  0  0  0  0  0
   -6.7170    1.7870    0.0000 N   0  0  0  0  0  0  0  0  0  0  0  0
   -7.0920    1.1460    0.0000 C   0  0  1  0  0  0  0  0  0  0  0  0
   -6.7120    0.5080    0.0000 C   0  0  0  0  0  0  0  0  0  0  0  0
   -7.8290    1.1460    0.0000 C   0  0  0  0  0  0  0  0  0  0  0  0
   -2.6250    1.2080    0.0000 C   0  0  0  0  0  0  0  0  0  0  0  0
   -7.0870    2.4250    0.0000 C   0  0  0  0  0  0  0  0  0  0  0  0
   -5.2460    1.8120    0.0000 C   0  0  0  0  0  0  0  0  0  0  0  0
   -5.9870    2.5460    0.0000 O   0  0  0  0  0  0  0  0  0  0  0  0
   -5.9870    1.0580    0.0000 O   0  0  0  0  0  0  0  0  0  0  0  0
   -8.2040    1.7710    0.0000 C   0  0  0  0  0  0  0  0  0  0  0  0
   -2.9960    1.8370    0.0000 O   0  0  0  0  0  0  0  0  0  0  0  0
   -5.9830    0.5120    0.0000 O   0  0  0  0  0  0  0  0  0  0  0  0
   -7.8420    2.4210    0.0000 C   0  0  0  0  0  0  0  0  0  0  0  0
   -7.0790   -0.1250    0.0000 N   0  0  0  0  0  0  0  0  0  0  0  0
   -4.8830    2.4580    0.0000 C   0  0  0  0  0  0  0  0  0  0  0  0
   -4.8620    1.1830    0.0000 C   0  0  0  0  0  0  0  0  0  0  0  0
   -2.8960    0.4750    0.0000 F   0  0  0  0  0  0  0  0  0  0  0  0
   -1.8500    1.0830    0.0000 F   0  0  0  0  0  0  0  0  0  0  0  0
   -2.2830    0.6250    0.0000 F   0  0  0  0  0  0  0  0  0  0  0  0
   -3.7460    1.8250    0.0000 C   0  0  0  0  0  0  0  0  0  0  0  0
   -4.1210    1.1870    0.0000 C   0  0  0  0  0  0  0  0  0  0  0  0
   -4.1250    2.4710    0.0000 C   0  0  0  0  0  0  0  0  0  0  0  0
   -6.7120   -0.7540    0.0000 O   0  0  0  0  0  0  0  0  0  0  0  0
   -8.1920    0.5080    0.0000 C   0  0  0  0  0  0  0  0  0  0  0  0
   -8.9460    1.7580    0.0000 C   0  0  0  0  0  0  0  0  0  0  0  0
   -8.9170    0.5000    0.0000 C   0  0  0  0  0  0  0  0  0  0  0  0
   -9.3000    1.1330    0.0000 C   0  0  0  0  0  0  0  0  0  0  0  0
  2  1  1  0  0  0  0
  3  2  1  0  0  0  0
  3  4  1  1  0  0  0
  5  3  1  0  0  0  0
  6 12  1  0  0  0  0
  7  2  1  0  0  0  0
  8  1  1  0  0  0  0
  9  1  2  0  0  0  0
 10  1  2  0  0  0  0
 11 14  1  0  0  0  0
 12 21  1  0  0  0  0
 13  4  2  0  0  0  0
 14  7  1  0  0  0  0
 15  4  1  0  0  0  0
 16  8  2  0  0  0  0
 17  8  1  0  0  0  0
 18  6  1  0  0  0  0
 19  6  1  0  0  0  0
 20  6  1  0  0  0  0
 21 23  2  0  0  0  0
 22 17  2  0  0  0  0
 23 16  1  0  0  0  0
 24 15  1  0  0  0  0
 25  5  2  0  0  0  0
 26 11  2  0  0  0  0
 27 25  1  0  0  0  0
 28 26  1  0  0  0  0
 22 21  1  0  0  0  0
 11  5  1  0  0  0  0
 28 27  2  0  0  0  0
M  END
>  <ID_NEW>
CPDMM2078

>  <pIC50>
8.200659450546418

$$$$

  -MTS-   10172316422D 0   0.00000     0.00000     0

 31 34  0  0  1  0  0  0  0  0999 V2000
   -5.9960    1.7830    0.0000 S   0  0  0  0  0  0  0  0  0  0  0  0
   -6.7330    1.7750    0.0000 N   0  0  0  0  0  0  0  0  0  0  0  0
   -7.1040    1.1370    0.0000 C   0  0  1  0  0  0  0  0  0  0  0  0
   -6.7290    0.5000    0.0000 C   0  0  0  0  0  0  0  0  0  0  0  0
   -7.8460    1.1330    0.0000 C   0  0  0  0  0  0  0  0  0  0  0  0
   -7.1040    2.4120    0.0000 C   0  0  0  0  0  0  0  0  0  0  0  0
   -5.2710    1.7870    0.0000 C   0  0  0  0  0  0  0  0  0  0  0  0
   -0.0580    1.8460    0.0000 N   0  0  0  0  0  0  0  0  0  0  0  0
   -5.9960    1.0460    0.0000 O   0  0  0  0  0  0  0  0  0  0  0  0
   -6.0000    2.5250    0.0000 O   0  0  0  0  0  0  0  0  0  0  0  0
   -0.8000    1.8460    0.0000 C   0  0  0  0  0  0  0  0  0  0  0  0
   -8.2290    1.7580    0.0000 C   0  0  0  0  0  0  0  0  0  0  0  0
   -6.0000    0.5000    0.0000 O   0  0  0  0  0  0  0  0  0  0  0  0
   -3.7750    1.8080    0.0000 C   0  0  0  0  0  0  0  0  0  0  0  0
   -3.0250    1.8120    0.0000 C   0  0  0  0  0  0  0  0  0  0  0  0
   -7.8540    2.4080    0.0000 C   0  0  0  0  0  0  0  0  0  0  0  0
   -7.0960   -0.1370    0.0000 N   0  0  0  0  0  0  0  0  0  0  0  0
   -4.8920    1.1580    0.0000 C   0  0  0  0  0  0  0  0  0  0  0  0
   -4.8960    2.4370    0.0000 C   0  0  0  0  0  0  0  0  0  0  0  0
   -4.1460    1.1710    0.0000 C   0  0  0  0  0  0  0  0  0  0  0  0
   -4.1580    2.4540    0.0000 C   0  0  0  0  0  0  0  0  0  0  0  0
   -2.6620    2.4710    0.0000 C   0  0  0  0  0  0  0  0  0  0  0  0
   -2.6580    1.1830    0.0000 C   0  0  0  0  0  0  0  0  0  0  0  0
   -1.5370    1.8330    0.0000 C   0  0  0  0  0  0  0  0  0  0  0  0
   -1.9210    2.4750    0.0000 C   0  0  0  0  0  0  0  0  0  0  0  0
   -1.9080    1.1960    0.0000 C   0  0  0  0  0  0  0  0  0  0  0  0
   -6.7290   -0.7670    0.0000 O   0  0  0  0  0  0  0  0  0  0  0  0
   -8.2120    0.4960    0.0000 C   0  0  0  0  0  0  0  0  0  0  0  0
   -8.9670    1.7460    0.0000 C   0  0  0  0  0  0  0  0  0  0  0  0
   -8.9420    0.4870    0.0000 C   0  0  0  0  0  0  0  0  0  0  0  0
   -9.3170    1.1210    0.0000 C   0  0  0  0  0  0  0  0  0  0  0  0
  2  1  1  0  0  0  0
  3  2  1  0  0  0  0
  3  4  1  1  0  0  0
  5  3  1  0  0  0  0
  6  2  1  0  0  0  0
  7  1  1  0  0  0  0
  8 11  3  0  0  0  0
  9  1  2  0  0  0  0
 10  1  2  0  0  0  0
 11 24  1  0  0  0  0
 12 16  1  0  0  0  0
 13  4  2  0  0  0  0
 14 20  2  0  0  0  0
 15 14  1  0  0  0  0
 16  6  1  0  0  0  0
 17  4  1  0  0  0  0
 18  7  2  0  0  0  0
 19  7  1  0  0  0  0
 20 18  1  0  0  0  0
 21 19  2  0  0  0  0
 22 15  1  0  0  0  0
 23 15  2  0  0  0  0
 24 25  1  0  0  0  0
 25 22  2  0  0  0  0
 26 23  1  0  0  0  0
 27 17  1  0  0  0  0
 28  5  2  0  0  0  0
 29 12  2  0  0  0  0
 30 28  1  0  0  0  0
 31 29  1  0  0  0  0
 21 14  1  0  0  0  0
 12  5  1  0  0  0  0
 31 30  2  0  0  0  0
 24 26  2  0  0  0  0
M  END
>  <ID_NEW>
CPDMM2079

>  <pIC50>
8.189149155635583

$$$$

  SciTegic12180812532D

 30 33  0  0  0  0            999 V2000
   -5.3180    3.7214    0.0000 O   0  0
   -5.8308    3.0677    0.0000 C   0  0
   -5.3664    2.3809    0.0000 C   0  0
   -4.5403    3.4384    0.0000 C   0  0
   -4.5695    2.6099    0.0000 C   0  0
   -3.8621    2.1728    0.0000 C   0  0
   -3.1128    2.4803    0.0000 N   0  0
   -3.1003    3.3880    0.0000 C   0  0
   -3.8038    3.8298    0.0000 C   0  0
   -3.8914    1.3466    0.0000 C   0  0
   -4.6288    0.9605    0.0000 N   0  0
   -3.1925    0.9082    0.0000 O   0  0
   -1.1817    2.8892    0.0000 C   0  0
   -1.4380    2.1025    0.0000 C   0  0
   -0.8853    1.4894    0.0000 C   0  0
   -0.0764    1.6616    0.0000 C   0  0
    0.1771    2.4524    0.0000 C   0  0
   -0.3773    3.0623    0.0000 C   0  0
    0.9833    2.6276    0.0000 O   0  0
    1.7890    2.8064    0.0000 C   0  0
    2.3454    2.1954    0.0000 C   0  0
    3.1505    2.3737    0.0000 C   0  0
    3.3991    3.1616    0.0000 C   0  0
    2.8366    3.7714    0.0000 C   0  0
    2.0336    3.5898    0.0000 C   0  0
    4.2025    3.3345    0.0000 F   0  0
   -2.2468    1.9315    0.0000 S   0  0
   -1.8737    1.1972    0.0000 O   0  0
   -2.8631    1.3833    0.0000 O   0  0
   -4.6333    0.1375    0.0000 O   0  0
  6 10  1  0
  4  5  2  0
  2  3  2  0
  4  9  1  0
  5  6  1  0
  6  7  1  0
  7  8  1  0
  8  9  1  0
  1  2  1  0
  3  5  1  0
  4  1  1  0
 10 11  1  0
 10 12  2  0
 13 14  2  0
 14 15  1  0
 15 16  2  0
 16 17  1  0
 17 18  2  0
 18 13  1  0
 17 19  1  0
 19 20  1  0
 20 21  2  0
 21 22  1  0
 22 23  2  0
 23 24  1  0
 24 25  2  0
 25 20  1  0
 23 26  1  0
 14 27  1  0
 27 28  2  0
 27 29  2  0
 27  7  1  0
 11 30  1  0
M  END
>  <ID_NEW>
CPDMM2080

>  <pIC50>
8.184023999028014

$$$$

  -MTS-   10172316422D 0   0.00000     0.00000     0

 34 37  0  0  1  0  0  0  0  0999 V2000
   -0.7860    2.6750    0.0000 C   0  0  0  0  0  0  0  0  0  0  0  0
   -1.0250    1.8830    0.0000 C   0  0  0  0  0  0  0  0  0  0  0  0
   -0.4590    1.2820    0.0000 C   0  0  0  0  0  0  0  0  0  0  0  0
    0.3460    1.4730    0.0000 C   0  0  0  0  0  0  0  0  0  0  0  0
    0.5820    2.2690    0.0000 C   0  0  0  0  0  0  0  0  0  0  0  0
    0.0140    2.8660    0.0000 C   0  0  0  0  0  0  0  0  0  0  0  0
    1.3840    2.4620    0.0000 C   0  0  0  0  0  0  0  0  0  0  0  0
    1.9490    1.8620    0.0000 C   0  0  0  0  0  0  0  0  0  0  0  0
    2.7500    2.0540    0.0000 C   0  0  0  0  0  0  0  0  0  0  0  0
    2.9850    2.8460    0.0000 C   0  0  0  0  0  0  0  0  0  0  0  0
    2.4120    3.4450    0.0000 C   0  0  0  0  0  0  0  0  0  0  0  0
    1.6120    3.2500    0.0000 C   0  0  0  0  0  0  0  0  0  0  0  0
    3.7870    3.0400    0.0000 C   0  0  0  0  0  0  0  0  0  0  0  0
    4.3560    2.4420    0.0000 C   0  0  0  0  0  0  0  0  0  0  0  0
    4.0200    3.8310    0.0000 C   0  0  0  0  0  0  0  0  0  0  0  0
   -2.0040    1.6920    0.0000 S   0  0  0  0  0  0  0  0  0  0  0  0
   -5.8330    2.8620    0.0000 C   0  0  0  0  0  0  0  0  0  0  0  0
   -5.8330    2.0370    0.0000 C   0  0  0  0  0  0  0  0  0  0  0  0
   -5.1210    1.6290    0.0000 C   0  0  0  0  0  0  0  0  0  0  0  0
   -5.1210    3.2790    0.0000 C   0  0  0  0  0  0  0  0  0  0  0  0
   -4.4090    2.8620    0.0000 C   0  0  2  0  0  0  0  0  0  0  0  0
   -4.4130    2.0370    0.0000 C   0  0  1  0  0  0  0  0  0  0  0  0
   -3.7040    1.6240    0.0000 C   0  0  1  0  0  0  0  0  0  0  0  0
   -2.9870    2.0310    0.0000 N   0  0  0  0  0  0  0  0  0  0  0  0
   -2.9840    2.8560    0.0000 C   0  0  0  0  0  0  0  0  0  0  0  0
   -3.6970    3.2740    0.0000 C   0  0  0  0  0  0  0  0  0  0  0  0
   -3.7070    0.7980    0.0000 C   0  0  0  0  0  0  0  0  0  0  0  0
   -4.4240    0.3890    0.0000 N   0  0  0  0  0  0  0  0  0  0  0  0
   -2.9950    0.3810    0.0000 O   0  0  0  0  0  0  0  0  0  0  0  0
   -1.4920    0.7920    0.0000 O   0  0  0  0  0  0  0  0  0  0  0  0
   -2.7460    0.9580    0.0000 O   0  0  0  0  0  0  0  0  0  0  0  0
   -4.4290   -0.4330    0.0000 O   0  0  0  0  0  0  0  0  0  0  0  0
   -4.4150    1.0370    0.0000 H   0  0  0  0  0  0  0  0  0  0  0  0
   -4.4070    3.8620    0.0000 H   0  0  0  0  0  0  0  0  0  0  0  0
 13 14  1  0  0  0  0
 13 15  1  0  0  0  0
  1  2  2  0  0  0  0
  2  3  1  0  0  0  0
  3  4  2  0  0  0  0
  4  5  1  0  0  0  0
  5  6  2  0  0  0  0
  6  1  1  0  0  0  0
  5  7  1  0  0  0  0
  7  8  2  0  0  0  0
  8  9  1  0  0  0  0
  9 10  2  0  0  0  0
 10 11  1  0  0  0  0
 11 12  2  0  0  0  0
 12  7  1  0  0  0  0
 10 13  1  0  0  0  0
 25 26  1  0  0  0  0
 27 28  1  0  0  0  0
 27 29  2  0  0  0  0
 23 27  1  1  0  0  0
 16 30  2  0  0  0  0
 17 18  1  0  0  0  0
 17 20  1  0  0  0  0
 18 19  1  0  0  0  0
 19 22  1  0  0  0  0
 21 20  1  0  0  0  0
 21 22  1  0  0  0  0
 21 26  1  0  0  0  0
 22 23  1  0  0  0  0
 23 24  1  0  0  0  0
 16 31  2  0  0  0  0
 24 25  1  0  0  0  0
 24 16  1  0  0  0  0
 16  2  1  0  0  0  0
 28 32  1  0  0  0  0
 22 33  1  6  0  0  0
 21 34  1  6  0  0  0
M  END
>  <ID_NEW>
CPDMM2081

>  <pIC50>
8.174638804047365

$$$$

  SciTegic12180812582D

 32 35  0  0  0  0            999 V2000
   -3.0182    2.5017    0.0000 S   0  0
   -2.4579    2.8267    0.0000 C   0  0
   -1.8949    2.4971    0.0000 C   0  0
   -1.3309    2.8214    0.0000 C   0  0
   -1.3305    3.4723    0.0000 C   0  0
   -1.9000    3.7971    0.0000 C   0  0
   -2.4568    3.4704    0.0000 C   0  0
   -3.4849    2.0392    0.0000 O   0  0
   -2.6974    1.9392    0.0000 O   0  0
   -5.8333    3.4750    0.0000 C   0  0
   -5.8333    2.8250    0.0000 C   0  0
   -5.2713    2.5000    0.0000 C   0  0
   -5.2713    3.8042    0.0000 C   0  0
   -4.7093    3.4750    0.0000 C   0  0
   -4.7082    2.8250    0.0000 C   0  0
   -4.1472    2.5032    0.0000 C   0  0
   -3.5826    2.8268    0.0000 N   0  0
   -3.5837    3.4768    0.0000 C   0  0
   -4.1493    3.8032    0.0000 C   0  0
   -4.1473    1.8490    0.0000 C   0  0
   -4.7110    1.5227    0.0000 N   0  0
   -3.5820    1.5225    0.0000 O   0  0
   -0.7666    3.7983    0.0000 O   0  0
   -0.2016    3.4743    0.0000 C   0  0
   -0.2058    2.8239    0.0000 C   0  0
    0.3584    2.5000    0.0000 C   0  0
    0.9191    2.8260    0.0000 C   0  0
    0.9195    3.4803    0.0000 C   0  0
    0.3547    3.8005    0.0000 C   0  0
    1.4811    2.5024    0.0000 C   0  0
    2.0424    2.1810    0.0000 N   0  0
   -4.5458    0.9000    0.0000 O   0  0
  1  2  1  0
  2  3  2  0
  3  4  1  0
  4  5  2  0
  5  6  1  0
  6  7  2  0
  7  2  1  0
  1  8  2  0
  1  9  2  0
 10 11  1  0
 10 13  1  0
 11 12  1  0
 12 15  1  0
 14 13  1  0
 14 15  1  0
 14 19  1  0
 15 16  1  0
 16 17  1  0
 17 18  1  0
 18 19  1  0
 16 20  1  0
 20 21  1  0
 20 22  2  0
 17  1  1  0
  5 23  1  0
 23 24  1  0
 24 25  2  0
 25 26  1  0
 26 27  2  0
 27 28  1  0
 28 29  2  0
 29 24  1  0
 27 30  1  0
 30 31  3  0
 21 32  1  0
M  END
>  <ID_NEW>
CPDMM2082

>  <pIC50>
8.161150909262744

$$$$

  -MTS-   10172316422D 0   0.00000     0.00000     0

 36 39  0  0  1  0  0  0  0  0999 V2000
   -0.2310   -0.8750    0.0000 C   0  0  0  0  0  0  0  0  0  0  0  0
   -0.2320   -1.6980    0.0000 C   0  0  0  0  0  0  0  0  0  0  0  0
    0.4870   -2.1110    0.0000 C   0  0  0  0  0  0  0  0  0  0  0  0
    0.4850   -0.4620    0.0000 C   0  0  0  0  0  0  0  0  0  0  0  0
    1.1970   -0.8710    0.0000 C   0  0  0  0  0  0  0  0  0  0  0  0
    1.1960   -1.6960    0.0000 C   0  0  0  0  0  0  0  0  0  0  0  0
    1.9110   -2.1110    0.0000 C   0  0  0  0  0  0  0  0  0  0  0  0
    2.6270   -1.6980    0.0000 N   0  0  0  0  0  0  0  0  0  0  0  0
    2.6280   -0.8740    0.0000 C   0  0  2  0  0  0  0  0  0  0  0  0
    1.9120   -0.4620    0.0000 C   0  0  0  0  0  0  0  0  0  0  0  0
    3.3490   -0.4590    0.0000 C   0  0  0  0  0  0  0  0  0  0  0  0
    4.0610   -0.8780    0.0000 N   0  0  0  0  0  0  0  0  0  0  0  0
    3.3510    0.3660    0.0000 O   0  0  0  0  0  0  0  0  0  0  0  0
    3.3470   -2.1170    0.0000 S   0  0  0  0  0  0  0  0  0  0  0  0
    3.7690   -1.3990    0.0000 O   0  0  0  0  0  0  0  0  0  0  0  0
    2.9280   -2.8400    0.0000 O   0  0  0  0  0  0  0  0  0  0  0  0
    4.0610   -2.5300    0.0000 C   0  0  0  0  0  0  0  0  0  0  0  0
    4.0600   -3.3550    0.0000 C   0  0  0  0  0  0  0  0  0  0  0  0
    4.7740   -3.7690    0.0000 C   0  0  0  0  0  0  0  0  0  0  0  0
    4.7710   -4.5930    0.0000 C   0  0  0  0  0  0  0  0  0  0  0  0
    5.4850   -5.0060    0.0000 C   0  0  0  0  0  0  0  0  0  0  0  0
    6.2000   -4.5940    0.0000 C   0  0  0  0  0  0  0  0  0  0  0  0
    6.1990   -3.7650    0.0000 C   0  0  0  0  0  0  0  0  0  0  0  0
    5.4850   -3.3550    0.0000 C   0  0  0  0  0  0  0  0  0  0  0  0
    6.9150   -5.0060    0.0000 C   0  0  0  0  0  0  0  0  0  0  0  0
    6.9100   -5.8300    0.0000 C   0  0  0  0  0  0  0  0  0  0  0  0
    7.6240   -6.2420    0.0000 C   0  0  0  0  0  0  0  0  0  0  0  0
    8.3390   -5.8290    0.0000 C   0  0  0  0  0  0  0  0  0  0  0  0
    8.3360   -5.0000    0.0000 C   0  0  0  0  0  0  0  0  0  0  0  0
    7.6220   -4.5920    0.0000 C   0  0  0  0  0  0  0  0  0  0  0  0
    4.7790   -0.4710    0.0000 O   0  0  0  0  0  0  0  0  0  0  0  0
    9.0490   -4.5850    0.0000 C   0  0  0  0  0  0  0  0  0  0  0  0
    9.7650   -4.9950    0.0000 N   0  0  0  0  0  0  0  0  0  0  0  0
    9.0460   -3.7600    0.0000 O   0  0  0  0  0  0  0  0  0  0  0  0
    9.7680   -5.8200    0.0000 C   0  0  0  0  0  0  0  0  0  0  0  0
   10.4780   -4.5790    0.0000 C   0  0  0  0  0  0  0  0  0  0  0  0
  5 10  1  0  0  0  0
 17 18  1  0  0  0  0
  6  7  1  0  0  0  0
 18 19  1  0  0  0  0
  7  8  1  0  0  0  0
 19 20  2  0  0  0  0
  8  9  1  0  0  0  0
 20 21  1  0  0  0  0
  9 10  1  0  0  0  0
 21 22  2  0  0  0  0
  5  6  1  0  0  0  0
 22 23  1  0  0  0  0
  9 11  1  6  0  0  0
 23 24  2  0  0  0  0
 24 19  1  0  0  0  0
 22 25  1  0  0  0  0
 11 12  1  0  0  0  0
 25 26  2  0  0  0  0
  2  3  1  0  0  0  0
 26 27  1  0  0  0  0
 11 13  2  0  0  0  0
 27 28  2  0  0  0  0
  3  6  2  0  0  0  0
 28 29  1  0  0  0  0
  8 14  1  0  0  0  0
 29 30  2  0  0  0  0
 30 25  1  0  0  0  0
  1  2  2  0  0  0  0
 12 31  1  0  0  0  0
 14 15  2  0  0  0  0
 29 32  1  0  0  0  0
  5  4  2  0  0  0  0
 32 33  1  0  0  0  0
 14 16  2  0  0  0  0
 32 34  2  0  0  0  0
  4  1  1  0  0  0  0
 33 35  1  0  0  0  0
 14 17  1  0  0  0  0
 33 36  1  0  0  0  0
M  END
>  <ID_NEW>
CPDMM2083

>  <pIC50>
8.154901959985743

$$$$

  SciTegic12180812542D

 36 39  0  0  0  0            999 V2000
   -2.2333    2.1750    0.0000 S   0  0
   -2.9417    2.5917    0.0000 N   0  0
   -3.6750    2.1875    0.0000 C   0  0
   -1.5167    1.7625    0.0000 C   0  0
   -3.6708    1.3667    0.0000 C   0  0
   -4.3917    2.6042    0.0000 C   0  0
   -2.9417    3.4333    0.0000 C   0  0
   -1.8125    2.8958    0.0000 O   0  0
   -2.6375    1.4708    0.0000 O   0  0
   -0.7917    0.5167    0.0000 N   0  0
   -0.0708    0.9208    0.0000 C   0  0
   -1.5167    0.9333    0.0000 C   0  0
    4.2417    1.7458    0.0000 C   0  0
   -4.3917    3.4208    0.0000 C   0  0
   -2.9417    0.9500    0.0000 O   0  0
   -0.8042    2.1750    0.0000 C   0  0
   -3.6708    3.8333    0.0000 C   0  0
   -4.3833    0.9500    0.0000 N   0  0
    0.6417    0.5083    0.0000 O   0  0
    4.2292    0.9083    0.0000 O   0  0
    3.5250    2.1625    0.0000 C   0  0
    1.3625    0.9167    0.0000 C   0  0
   -0.0750    1.7625    0.0000 C   0  0
    2.8042    1.7625    0.0000 C   0  0
    4.9625    2.1625    0.0000 O   0  0
   -4.3833    0.1333    0.0000 O   0  0
    2.0583    0.5042    0.0000 C   0  0
    1.3625    1.7333    0.0000 C   0  0
    2.0833    2.1542    0.0000 C   0  0
    2.7917    0.9083    0.0000 C   0  0
   -5.1000    2.1875    0.0000 C   0  0
   -5.1083    3.8333    0.0000 C   0  0
    5.6792    1.7458    0.0000 C   0  0
   -5.8208    2.6042    0.0000 C   0  0
    6.4083    2.1625    0.0000 C   0  0
   -5.8333    3.4333    0.0000 C   0  0
 19 11  1  0
 20 13  2  0
 21 24  1  0
 22 19  1  0
 23 16  2  0
 24 30  2  0
 25 13  1  0
 26 18  1  0
 27 22  2  0
 28 22  1  0
 29 28  2  0
 30 27  1  0
 31  6  2  0
 32 14  2  0
 33 25  1  0
 34 31  1  0
 35 33  1  0
 36 32  1  0
 14  6  1  0
 10 11  2  0
 36 34  2  0
 29 24  1  0
  2  1  1  0
  3  2  1  0
  4  1  1  0
  5  3  1  0
  6  3  1  0
  7  2  1  0
  8  1  2  0
  9  1  2  0
 10 12  1  0
 11 23  1  0
 12  4  2  0
 13 21  1  0
 14 17  1  0
 15  5  2  0
 16  4  1  0
 17  7  1  0
 18  5  1  0
M  END
>  <ID_NEW>
CPDMM2084

>  <pIC50>
8.154901959985743

$$$$

  -MTS-   10172316422D 0   0.00000     0.00000     0

 41 45  0  0  1  0  0  0  0  0999 V2000
   -4.1000    9.6170    0.0000 C   0  0  0  0  0  0  0  0  0  0  0  0
   -4.4670   10.2620    0.0000 N   0  0  0  0  0  0  0  0  0  0  0  0
   -4.4580    8.9790    0.0000 O   0  0  0  0  0  0  0  0  0  0  0  0
   -2.2290    8.9920    0.0000 C   0  0  0  0  0  0  0  0  0  0  0  0
   -1.8500    9.6290    0.0000 C   0  0  0  0  0  0  0  0  0  0  0  0
   -1.8420    8.3460    0.0000 C   0  0  0  0  0  0  0  0  0  0  0  0
   -2.9750    8.9830    0.0000 O   0  0  0  0  0  0  0  0  0  0  0  0
   -1.1000    9.6330    0.0000 C   0  0  0  0  0  0  0  0  0  0  0  0
   -1.0960    8.3460    0.0000 C   0  0  0  0  0  0  0  0  0  0  0  0
   -3.3420    9.6210    0.0000 C   0  0  0  0  0  0  0  0  0  0  0  0
   -0.7250    8.9920    0.0000 C   0  0  0  0  0  0  0  0  0  0  0  0
    0.0250    9.0000    0.0000 Cl  0  0  0  0  0  0  0  0  0  0  0  0
  -13.0790    9.5540    0.0000 C   0  0  0  0  0  0  0  0  0  0  0  0
  -12.7080    8.9080    0.0000 C   0  0  0  0  0  0  0  0  0  0  0  0
  -11.9580    8.9120    0.0000 C   0  0  0  0  0  0  0  0  0  0  0  0
  -12.7080   10.1960    0.0000 C   0  0  0  0  0  0  0  0  0  0  0  0
  -11.9580   10.1960    0.0000 C   0  0  0  0  0  0  0  0  0  0  0  0
  -11.5790    9.5580    0.0000 C   0  0  0  0  0  0  0  0  0  0  0  0
  -10.8290    9.5580    0.0000 C   0  0  0  0  0  0  0  0  0  0  0  0
  -10.4460   10.2120    0.0000 N   0  0  0  0  0  0  0  0  0  0  0  0
  -10.8290   10.8670    0.0000 C   0  0  2  0  0  0  0  0  0  0  0  0
  -11.5920   10.8580    0.0000 C   0  0  0  0  0  0  0  0  0  0  0  0
  -10.4620   11.5170    0.0000 C   0  0  0  0  0  0  0  0  0  0  0  0
   -9.7120   11.5170    0.0000 N   0  0  0  0  0  0  0  0  0  0  0  0
  -10.8290   12.1620    0.0000 O   0  0  0  0  0  0  0  0  0  0  0  0
   -9.7000   10.2170    0.0000 S   0  0  0  0  0  0  0  0  0  0  0  0
   -8.9500   10.2170    0.0000 C   0  0  0  0  0  0  0  0  0  0  0  0
   -8.5830    9.5790    0.0000 C   0  0  0  0  0  0  0  0  0  0  0  0
   -7.8330    9.5790    0.0000 C   0  0  0  0  0  0  0  0  0  0  0  0
   -7.4580   10.2250    0.0000 C   0  0  0  0  0  0  0  0  0  0  0  0
   -7.8460   10.8750    0.0000 C   0  0  0  0  0  0  0  0  0  0  0  0
   -8.5920   10.8620    0.0000 C   0  0  0  0  0  0  0  0  0  0  0  0
   -9.5170   10.9460    0.0000 O   0  0  0  0  0  0  0  0  0  0  0  0
   -9.8920    9.4960    0.0000 O   0  0  0  0  0  0  0  0  0  0  0  0
   -6.7120   10.2330    0.0000 C   0  0  0  0  0  0  0  0  0  0  0  0
   -6.3330    9.5960    0.0000 C   0  0  0  0  0  0  0  0  0  0  0  0
   -5.5830    9.6040    0.0000 C   0  0  0  0  0  0  0  0  0  0  0  0
   -5.2120   10.2500    0.0000 C   0  0  0  0  0  0  0  0  0  0  0  0
   -5.6000   10.8960    0.0000 C   0  0  0  0  0  0  0  0  0  0  0  0
   -6.3460   10.8870    0.0000 C   0  0  0  0  0  0  0  0  0  0  0  0
   -9.3460   12.1620    0.0000 O   0  0  0  0  0  0  0  0  0  0  0  0
  4  6  2  0  0  0  0
  4  7  1  0  0  0  0
  5  8  2  0  0  0  0
  6  9  1  0  0  0  0
  7 10  1  0  0  0  0
  8 11  1  0  0  0  0
 11 12  1  0  0  0  0
  9 11  2  0  0  0  0
  1 10  1  0  0  0  0
  1  3  2  0  0  0  0
  1  2  1  0  0  0  0
 20 26  1  0  0  0  0
 13 14  2  0  0  0  0
 26 27  1  0  0  0  0
 17 16  2  0  0  0  0
 27 28  2  0  0  0  0
 16 13  1  0  0  0  0
 28 29  1  0  0  0  0
 17 22  1  0  0  0  0
 29 30  2  0  0  0  0
 18 19  1  0  0  0  0
 30 31  1  0  0  0  0
 19 20  1  0  0  0  0
 31 32  2  0  0  0  0
 32 27  1  0  0  0  0
 20 21  1  0  0  0  0
 26 33  2  0  0  0  0
 21 22  1  0  0  0  0
 26 34  2  0  0  0  0
 17 18  1  0  0  0  0
 35 36  2  0  0  0  0
 14 15  1  0  0  0  0
 36 37  1  0  0  0  0
 23 24  1  0  0  0  0
 37 38  2  0  0  0  0
 23 25  2  0  0  0  0
 38 39  1  0  0  0  0
 21 23  1  6  0  0  0
 39 40  2  0  0  0  0
 40 35  1  0  0  0  0
 30 35  1  0  0  0  0
 15 18  2  0  0  0  0
  2 38  1  0  0  0  0
  4  5  1  0  0  0  0
 24 41  1  0  0  0  0
M  END
>  <ID_NEW>
CPDMM2085

>  <pIC50>
8.150514997831989

$$$$

  SciTegic12180812522D

 30 33  0  0  0  0            999 V2000
    7.0263   -2.9565    0.0000 C   0  0
    6.3906   -2.4318    0.0000 C   0  0
    5.6190   -2.7215    0.0000 C   0  0
    5.4837   -3.5362    0.0000 C   0  0
    6.1262   -4.0605    0.0000 C   0  0
    6.8953   -3.7680    0.0000 C   0  0
    4.7118   -3.8275    0.0000 S   0  0
    4.0351   -4.3033    0.0000 O   0  0
    5.1904   -4.4935    0.0000 O   0  0
    3.2789   -3.8277    0.0000 C   0  0
    3.9953   -3.4144    0.0000 N   0  0
    3.9924   -2.5839    0.0000 C   0  0
    3.2771   -2.1747    0.0000 C   0  0
    2.5640   -3.4149    0.0000 C   0  0
    2.5653   -2.5859    0.0000 C   0  0
    1.7773   -2.3286    0.0000 O   0  0
    1.2890   -2.9985    0.0000 C   0  0
    1.7753   -3.6698    0.0000 C   0  0
    3.2787   -4.6527    0.0000 C   0  0
    2.5649   -5.0680    0.0000 N   0  0
    3.9939   -5.0683    0.0000 O   0  0
    7.7983   -2.6656    0.0000 O   0  0
    8.4362   -3.1887    0.0000 C   0  0
    8.3006   -4.0024    0.0000 C   0  0
    8.9378   -4.5253    0.0000 C   0  0
    9.7108   -4.2345    0.0000 C   0  0
    9.8429   -3.4158    0.0000 C   0  0
    9.2046   -2.8965    0.0000 C   0  0
   10.3494   -4.7568    0.0000 Cl  0  0
    2.5583   -5.8917    0.0000 O   0  0
  1  2  2  0
  2  3  1  0
  3  4  2  0
  4  5  1  0
  5  6  2  0
  6  1  1  0
  4  7  1  0
  7  8  2  0
  7  9  2  0
 14 10  1  0
 10 11  1  0
 11 12  1  0
 12 13  1  0
 13 15  1  0
 14 15  1  0
 15 16  1  0
 16 17  1  0
 17 18  1  0
 18 14  1  0
 10 19  1  0
 19 20  1  0
 19 21  2  0
 11  7  1  0
  1 22  1  0
 22 23  1  0
 23 24  2  0
 24 25  1  0
 25 26  2  0
 26 27  1  0
 27 28  2  0
 28 23  1  0
 26 29  1  0
 20 30  1  0
M  END
>  <ID_NEW>
CPDMM2086

>  <pIC50>
8.133063182268359

$$$$

  SciTegic12180812592D

 33 36  0  0  0  0            999 V2000
    2.0508    2.5618    0.0000 C   0  0
    1.3461    2.9849    0.0000 O   0  0
    2.0473    1.7468    0.0000 C   0  0
    2.7657    2.9803    0.0000 C   0  0
    0.6206    2.5742    0.0000 C   0  0
    2.7695    1.3362    0.0000 C   0  0
    3.4937    2.5658    0.0000 C   0  0
   -0.0969    2.9906    0.0000 C   0  0
    0.6215    1.7511    0.0000 C   0  0
    3.4840    1.7478    0.0000 C   0  0
   -0.8151    2.5758    0.0000 C   0  0
   -0.0970    1.3399    0.0000 C   0  0
   -0.8185    1.7608    0.0000 C   0  0
   -5.0973    2.5959    0.0000 C   0  0
   -5.0984    1.7685    0.0000 C   0  0
   -4.3836    1.3556    0.0000 C   0  0
   -4.3854    3.0086    0.0000 C   0  0
   -3.6664    2.5955    0.0000 C   0  0
   -3.6693    1.7727    0.0000 C   0  0
   -2.9620    1.3610    0.0000 C   0  0
   -2.2474    1.7677    0.0000 N   0  0
   -2.2445    2.5905    0.0000 C   0  0
   -2.9563    3.0067    0.0000 C   0  0
   -2.9661    0.5361    0.0000 C   0  0
   -3.6805    0.1245    0.0000 N   0  0
   -2.2516    0.1176    0.0000 O   0  0
   -5.8118    3.0082    0.0000 O   0  0
   -5.8120    3.8332    0.0000 C   0  0
   -1.5349    1.3517    0.0000 S   0  0
   -0.9542    0.7708    0.0000 O   0  0
   -2.1250    0.7708    0.0000 O   0  0
    4.1958    1.3307    0.0000 F   0  0
   -3.6875   -0.7000    0.0000 O   0  0
  1  2  1  0
  1  3  1  0
  1  4  2  0
  2  5  1  0
  3  6  2  0
  4  7  1  0
  5  8  2  0
  5  9  1  0
  6 10  1  0
  8 11  1  0
  9 12  2  0
 11 13  2  0
  7 10  2  0
 12 13  1  0
 14 15  1  0
 15 16  1  0
 16 19  1  0
 18 17  1  0
 17 14  1  0
 18 19  1  0
 18 23  1  0
 19 20  1  0
 20 21  1  0
 21 22  1  0
 22 23  1  0
 20 24  1  0
 24 25  1  0
 24 26  2  0
 14 27  1  0
 27 28  1  0
 21 29  1  0
 29 13  1  0
 29 30  2  0
 29 31  2  0
 10 32  1  0
 25 33  1  0
M  END
>  <ID_NEW>
CPDMM2087

>  <pIC50>
8.102372908709558

$$$$

  -MTS-   10172316422D 0   0.00000     0.00000     0

 35 38  0  0  1  0  0  0  0  0999 V2000
   -2.9330    1.8210    0.0000 N   0  0  0  0  0  0  0  0  0  0  0  0
   -5.8310    2.9710    0.0000 C   0  0  0  0  0  0  0  0  0  0  0  0
   -5.8320    2.1430    0.0000 C   0  0  0  0  0  0  0  0  0  0  0  0
   -5.1170    1.7310    0.0000 C   0  0  0  0  0  0  0  0  0  0  0  0
   -5.1190    3.3840    0.0000 C   0  0  0  0  0  0  0  0  0  0  0  0
   -4.3980    2.1460    0.0000 C   0  0  1  0  0  0  0  0  0  0  0  0
   -4.4030    2.9740    0.0000 C   0  0  2  0  0  0  0  0  0  0  0  0
   -3.7560    3.5000    0.0000 C   0  0  0  0  0  0  0  0  0  0  0  0
   -3.7420    1.6320    0.0000 C   0  0  2  0  0  0  0  0  0  0  0  0
   -2.9440    3.3260    0.0000 C   0  0  0  0  0  0  0  0  0  0  0  0
   -2.5790    2.5800    0.0000 C   0  0  0  0  0  0  0  0  0  0  0  0
   -3.9200    0.8260    0.0000 C   0  0  0  0  0  0  0  0  0  0  0  0
   -4.7070    0.5780    0.0000 N   0  0  0  0  0  0  0  0  0  0  0  0
   -3.3120    0.2690    0.0000 O   0  0  0  0  0  0  0  0  0  0  0  0
   -4.8850   -0.2280    0.0000 O   0  0  0  0  0  0  0  0  0  0  0  0
   -2.4130    1.1810    0.0000 S   0  0  0  0  0  0  0  0  0  0  0  0
   -1.6210    1.4000    0.0000 C   0  0  0  0  0  0  0  0  0  0  0  0
   -3.2170    0.9710    0.0000 O   0  0  0  0  0  0  0  0  0  0  0  0
   -2.4210    0.3580    0.0000 O   0  0  0  0  0  0  0  0  0  0  0  0
   -1.0360    0.8210    0.0000 C   0  0  0  0  0  0  0  0  0  0  0  0
   -0.2450    1.0400    0.0000 C   0  0  0  0  0  0  0  0  0  0  0  0
   -0.0380    1.8360    0.0000 C   0  0  0  0  0  0  0  0  0  0  0  0
   -0.6290    2.4130    0.0000 C   0  0  0  0  0  0  0  0  0  0  0  0
   -1.4180    2.1920    0.0000 C   0  0  0  0  0  0  0  0  0  0  0  0
    0.7570    2.0570    0.0000 O   0  0  0  0  0  0  0  0  0  0  0  0
    1.3460    1.4790    0.0000 C   0  0  0  0  0  0  0  0  0  0  0  0
    1.1380    0.6840    0.0000 C   0  0  0  0  0  0  0  0  0  0  0  0
    1.7260    0.1060    0.0000 C   0  0  0  0  0  0  0  0  0  0  0  0
    2.5220    0.3270    0.0000 C   0  0  0  0  0  0  0  0  0  0  0  0
    2.7260    1.1310    0.0000 C   0  0  0  0  0  0  0  0  0  0  0  0
    2.1370    1.7050    0.0000 C   0  0  0  0  0  0  0  0  0  0  0  0
    3.1120   -0.2440    0.0000 C   0  0  0  0  0  0  0  0  0  0  0  0
    3.7010   -0.8210    0.0000 N   0  0  0  0  0  0  0  0  0  0  0  0
   -4.4850    3.9710    0.0000 H   0  0  0  0  0  0  0  0  0  0  0  0
   -4.4690    1.1490    0.0000 H   0  0  0  0  0  0  0  0  0  0  0  0
  1 11  1  0  0  0  0
  9 12  1  1  0  0  0
 12 13  1  0  0  0  0
 12 14  2  0  0  0  0
 13 15  1  0  0  0  0
  1 16  1  0  0  0  0
 16 17  1  0  0  0  0
 16 18  2  0  0  0  0
 16 19  2  0  0  0  0
 17 20  2  0  0  0  0
 20 21  1  0  0  0  0
 21 22  2  0  0  0  0
 22 23  1  0  0  0  0
 23 24  2  0  0  0  0
 24 17  1  0  0  0  0
  2  3  1  0  0  0  0
  3  4  1  0  0  0  0
  4  6  1  0  0  0  0
  7  5  1  0  0  0  0
  5  2  1  0  0  0  0
  6  7  1  0  0  0  0
  7  8  1  0  0  0  0
  6  9  1  0  0  0  0
  8 10  1  0  0  0  0
  9  1  1  0  0  0  0
 10 11  1  0  0  0  0
 22 25  1  0  0  0  0
 25 26  1  0  0  0  0
 26 27  2  0  0  0  0
 27 28  1  0  0  0  0
 28 29  2  0  0  0  0
 29 30  1  0  0  0  0
 30 31  2  0  0  0  0
 31 26  1  0  0  0  0
 32 33  3  0  0  0  0
 29 32  1  0  0  0  0
  7 34  1  6  0  0  0
  6 35  1  6  0  0  0
M  END
>  <ID_NEW>
CPDMM2088

>  <pIC50>
8.085656842880558

$$$$

  -MTS-   10172316422D 0   0.00000     0.00000     0

 32 35  0  0  1  0  0  0  0  0999 V2000
   -2.9330    2.1500    0.0000 N   0  0  0  0  0  0  0  0  0  0  0  0
   -5.8310    3.3000    0.0000 C   0  0  0  0  0  0  0  0  0  0  0  0
   -5.8320    2.4730    0.0000 C   0  0  0  0  0  0  0  0  0  0  0  0
   -5.1170    2.0600    0.0000 C   0  0  0  0  0  0  0  0  0  0  0  0
   -5.1190    3.7130    0.0000 C   0  0  0  0  0  0  0  0  0  0  0  0
   -4.3980    2.4760    0.0000 C   0  0  0  0  0  0  0  0  0  0  0  0
   -4.4030    3.3040    0.0000 C   0  0  0  0  0  0  0  0  0  0  0  0
   -3.7560    3.8300    0.0000 C   0  0  0  0  0  0  0  0  0  0  0  0
   -3.7420    1.9610    0.0000 C   0  0  2  0  0  0  0  0  0  0  0  0
   -2.9440    3.6550    0.0000 C   0  0  0  0  0  0  0  0  0  0  0  0
   -2.5790    2.9090    0.0000 C   0  0  0  0  0  0  0  0  0  0  0  0
   -3.9200    1.1560    0.0000 C   0  0  0  0  0  0  0  0  0  0  0  0
   -4.7070    0.9070    0.0000 N   0  0  0  0  0  0  0  0  0  0  0  0
   -3.3120    0.5980    0.0000 O   0  0  0  0  0  0  0  0  0  0  0  0
   -4.8850    0.1010    0.0000 O   0  0  0  0  0  0  0  0  0  0  0  0
   -2.4130    1.5100    0.0000 S   0  0  0  0  0  0  0  0  0  0  0  0
   -1.6210    1.7290    0.0000 C   0  0  0  0  0  0  0  0  0  0  0  0
   -3.2170    1.3000    0.0000 O   0  0  0  0  0  0  0  0  0  0  0  0
   -2.4210    0.6870    0.0000 O   0  0  0  0  0  0  0  0  0  0  0  0
   -1.0360    1.1500    0.0000 C   0  0  0  0  0  0  0  0  0  0  0  0
   -0.2450    1.3690    0.0000 C   0  0  0  0  0  0  0  0  0  0  0  0
   -0.0380    2.1650    0.0000 C   0  0  0  0  0  0  0  0  0  0  0  0
   -0.6290    2.7430    0.0000 C   0  0  0  0  0  0  0  0  0  0  0  0
   -1.4180    2.5210    0.0000 C   0  0  0  0  0  0  0  0  0  0  0  0
    0.7570    2.3860    0.0000 C   0  0  0  0  0  0  0  0  0  0  0  0
    1.3450    1.8080    0.0000 C   0  0  0  0  0  0  0  0  0  0  0  0
    2.1390    2.0280    0.0000 C   0  0  0  0  0  0  0  0  0  0  0  0
    2.3450    2.8280    0.0000 C   0  0  0  0  0  0  0  0  0  0  0  0
    1.7520    3.4070    0.0000 C   0  0  0  0  0  0  0  0  0  0  0  0
    0.9600    3.1830    0.0000 C   0  0  0  0  0  0  0  0  0  0  0  0
    3.1360    3.0540    0.0000 C   0  0  0  0  0  0  0  0  0  0  0  0
    3.9310    3.2760    0.0000 N   0  0  0  0  0  0  0  0  0  0  0  0
  1 11  1  0  0  0  0
  9 12  1  1  0  0  0
 12 13  1  0  0  0  0
 12 14  2  0  0  0  0
 13 15  1  0  0  0  0
  1 16  1  0  0  0  0
 16 17  1  0  0  0  0
 16 18  2  0  0  0  0
 16 19  2  0  0  0  0
 17 20  2  0  0  0  0
 20 21  1  0  0  0  0
 21 22  2  0  0  0  0
 22 23  1  0  0  0  0
 23 24  2  0  0  0  0
 24 17  1  0  0  0  0
 22 25  1  0  0  0  0
 25 26  2  0  0  0  0
 26 27  1  0  0  0  0
 27 28  2  0  0  0  0
 28 29  1  0  0  0  0
 29 30  2  0  0  0  0
 30 25  1  0  0  0  0
  2  3  2  0  0  0  0
  3  4  1  0  0  0  0
  4  6  2  0  0  0  0
  7  5  2  0  0  0  0
  5  2  1  0  0  0  0
  6  7  1  0  0  0  0
  7  8  1  0  0  0  0
  6  9  1  0  0  0  0
  8 10  1  0  0  0  0
  9  1  1  0  0  0  0
 10 11  1  0  0  0  0
 31 32  3  0  0  0  0
 28 31  1  0  0  0  0
M  END
>  <ID_NEW>
CPDMM2089

>  <pIC50>
8.085286713026376

$$$$

  -MTS-   10172316422D 0   0.00000     0.00000     0

 37 40  0  0  1  0  0  0  0  0999 V2000
   -2.3220    1.8540    0.0000 C   0  0  0  0  0  0  0  0  0  0  0  0
   -2.9690    1.5830    0.0000 S   0  0  0  0  0  0  0  0  0  0  0  0
   -2.4140    1.1640    0.0000 O   0  0  0  0  0  0  0  0  0  0  0  0
   -3.3890    1.0320    0.0000 O   0  0  0  0  0  0  0  0  0  0  0  0
   -1.7730    1.4250    0.0000 C   0  0  0  0  0  0  0  0  0  0  0  0
   -1.1250    1.6960    0.0000 C   0  0  0  0  0  0  0  0  0  0  0  0
   -1.0400    2.3860    0.0000 C   0  0  0  0  0  0  0  0  0  0  0  0
   -1.5970    2.8080    0.0000 C   0  0  0  0  0  0  0  0  0  0  0  0
   -2.2340    2.5390    0.0000 C   0  0  0  0  0  0  0  0  0  0  0  0
   -5.8330    3.1000    0.0000 C   0  0  0  0  0  0  0  0  0  0  0  0
   -5.8330    2.4000    0.0000 C   0  0  0  0  0  0  0  0  0  0  0  0
   -5.2330    2.0580    0.0000 C   0  0  0  0  0  0  0  0  0  0  0  0
   -5.2330    3.4500    0.0000 C   0  0  0  0  0  0  0  0  0  0  0  0
   -4.6280    3.1000    0.0000 C   0  0  1  0  0  0  0  0  0  0  0  0
   -4.0860    3.5270    0.0000 C   0  0  0  0  0  0  0  0  0  0  0  0
   -3.4090    3.3710    0.0000 C   0  0  0  0  0  0  0  0  0  0  0  0
   -3.1110    2.7540    0.0000 C   0  0  0  0  0  0  0  0  0  0  0  0
   -4.6210    2.4000    0.0000 C   0  0  1  0  0  0  0  0  0  0  0  0
   -3.4110    2.1280    0.0000 N   0  0  0  0  0  0  0  0  0  0  0  0
   -4.0800    1.9690    0.0000 C   0  0  1  0  0  0  0  0  0  0  0  0
   -4.2360    1.2880    0.0000 C   0  0  0  0  0  0  0  0  0  0  0  0
   -4.9020    1.0840    0.0000 N   0  0  0  0  0  0  0  0  0  0  0  0
   -3.7210    0.8150    0.0000 O   0  0  0  0  0  0  0  0  0  0  0  0
   -0.3980    2.6550    0.0000 O   0  0  0  0  0  0  0  0  0  0  0  0
    0.1560    2.2350    0.0000 C   0  0  0  0  0  0  0  0  0  0  0  0
    0.0690    1.5460    0.0000 C   0  0  0  0  0  0  0  0  0  0  0  0
    0.6240    1.1250    0.0000 C   0  0  0  0  0  0  0  0  0  0  0  0
    1.2650    1.3950    0.0000 C   0  0  0  0  0  0  0  0  0  0  0  0
    1.3460    2.0890    0.0000 C   0  0  0  0  0  0  0  0  0  0  0  0
    0.7920    2.5060    0.0000 C   0  0  0  0  0  0  0  0  0  0  0  0
   -5.2500    0.4870    0.0000 O   0  0  0  0  0  0  0  0  0  0  0  0
    1.8210    0.9770    0.0000 S   0  0  0  0  0  0  0  0  0  0  0  0
    2.3120    0.4870    0.0000 C   0  0  0  0  0  0  0  0  0  0  0  0
    2.3120    1.4750    0.0000 O   0  0  0  0  0  0  0  0  0  0  0  0
    1.3250    0.4870    0.0000 O   0  0  0  0  0  0  0  0  0  0  0  0
   -4.7020    1.4030    0.0000 H   0  0  0  0  0  0  0  0  0  0  0  0
   -4.7000    4.0970    0.0000 H   0  0  0  0  0  0  0  0  0  0  0  0
 27 28  2  0  0  0  0
 28 29  1  0  0  0  0
 29 30  2  0  0  0  0
 30 25  1  0  0  0  0
 22 31  1  0  0  0  0
  1  2  1  0  0  0  0
  2  3  2  0  0  0  0
  2  4  2  0  0  0  0
  1  5  2  0  0  0  0
  5  6  1  0  0  0  0
  6  7  2  0  0  0  0
  7  8  1  0  0  0  0
  8  9  2  0  0  0  0
  9  1  1  0  0  0  0
 10 11  1  0  0  0  0
 10 13  1  0  0  0  0
 11 12  1  0  0  0  0
 12 18  1  0  0  0  0
 14 13  1  0  0  0  0
 14 15  1  0  0  0  0
 15 16  1  0  0  0  0
 16 17  1  0  0  0  0
 14 18  1  0  0  0  0
 17 19  1  0  0  0  0
 18 20  1  0  0  0  0
 19 20  1  0  0  0  0
 21 22  1  0  0  0  0
 21 23  2  0  0  0  0
 20 21  1  1  0  0  0
 19  2  1  0  0  0  0
  7 24  1  0  0  0  0
 24 25  1  0  0  0  0
 25 26  2  0  0  0  0
 26 27  1  0  0  0  0
 28 32  1  0  0  0  0
 32 33  1  0  0  0  0
 32 34  2  0  0  0  0
 32 35  2  0  0  0  0
 18 36  1  6  0  0  0
 14 37  1  6  0  0  0
M  END
>  <ID_NEW>
CPDMM2090

>  <pIC50>
8.085022527555667

$$$$

  SciTegic12180812562D

 37 40  0  0  0  0            999 V2000
    2.8360   -2.7625    0.0000 C   0  0
    2.8349   -3.5148    0.0000 C   0  0
    3.4872   -3.8902    0.0000 C   0  0
    3.4854   -2.3872    0.0000 C   0  0
    4.1342   -2.7588    0.0000 C   0  0
    4.1376   -3.5123    0.0000 C   0  0
    4.7861   -3.8838    0.0000 C   0  0
    5.4400   -3.5064    0.0000 N   0  0
    5.4366   -2.7572    0.0000 C   0  0
    4.7835   -2.3811    0.0000 C   0  0
    4.7883   -4.6338    0.0000 C   0  0
    4.1417   -5.0108    0.0000 O   0  0
    5.4414   -5.0069    0.0000 N   0  0
    5.4437   -5.7569    0.0000 O   0  0
    6.0889   -3.8795    0.0000 S   0  0
    6.7397   -3.5068    0.0000 C   0  0
    5.5613   -4.4144    0.0000 O   0  0
    7.3849   -3.8793    0.0000 C   0  0
    8.0353   -3.5072    0.0000 N   0  0
    8.0335   -2.7563    0.0000 C   0  0
    7.3754   -2.3793    0.0000 C   0  0
    6.7321   -2.7579    0.0000 C   0  0
    8.6796   -2.3784    0.0000 O   0  0
    9.3290   -2.7505    0.0000 C   0  0
    9.3297   -3.5011    0.0000 C   0  0
    9.9825   -3.8731    0.0000 C   0  0
   10.6297   -3.4952    0.0000 C   0  0
   10.6237   -2.7409    0.0000 C   0  0
    9.9744   -2.3727    0.0000 C   0  0
   11.2838   -3.8663    0.0000 O   0  0
   11.2841   -4.6163    0.0000 C   0  0
   11.9383   -4.9875    0.0000 F   0  0
   10.6385   -4.9952    0.0000 F   0  0
   11.4852   -5.3412    0.0000 F   0  0
    6.4583   -4.5292    0.0000 O   0  0
    3.4888   -4.6428    0.0000 F   0  0
    3.4840   -1.6396    0.0000 C   0  0
  4  1  1  0
 31 32  1  0
  8 15  1  0
 31 33  1  0
  5 10  1  0
 31 34  1  0
 15 35  2  0
  6  7  1  0
 15 16  1  0
  7  8  1  0
 15 17  2  0
  8  9  1  0
 16 18  2  0
  9 10  1  0
 18 19  1  0
  5  6  1  0
 19 20  2  0
 20 21  1  0
 21 22  2  0
 22 16  1  0
 20 23  1  0
  2  3  1  0
 23 24  1  0
  7 11  1  0
 24 25  2  0
  3  6  2  0
 25 26  1  0
 11 12  2  0
 26 27  2  0
  1  2  2  0
 27 28  1  0
  3 36  1  0
  4 37  1  0
 11 13  1  0
 28 29  2  0
 29 24  1  0
  5  4  2  0
 27 30  1  0
 13 14  1  0
 30 31  1  0
M  END
>  <ID_NEW>
CPDMM2091

>  <pIC50>
8.050073556332087

$$$$

  SciTegic12180812512D

 35 38  0  0  0  0            999 V2000
   -2.2682    2.1517    0.0000 S   0  0
   -1.5537    2.5642    0.0000 C   0  0
   -0.8407    2.1471    0.0000 C   0  0
   -0.1267    2.5589    0.0000 C   0  0
   -0.1263    3.3848    0.0000 C   0  0
   -0.8458    3.7971    0.0000 C   0  0
   -1.5568    3.3829    0.0000 C   0  0
   -2.8557    1.5684    0.0000 O   0  0
   -1.8599    1.4392    0.0000 O   0  0
   -5.8333    3.3875    0.0000 C   0  0
   -5.8333    2.5625    0.0000 C   0  0
   -5.1213    2.1542    0.0000 C   0  0
   -5.1213    3.8042    0.0000 C   0  0
   -4.4093    3.3875    0.0000 C   0  0
   -4.4082    2.5625    0.0000 C   0  0
   -3.6972    2.1532    0.0000 C   0  0
   -2.9826    2.5643    0.0000 N   0  0
   -2.9837    3.3893    0.0000 C   0  0
   -3.6993    3.8032    0.0000 C   0  0
   -3.6973    1.3282    0.0000 C   0  0
   -4.4110    0.9144    0.0000 N   0  0
   -2.9820    0.9142    0.0000 O   0  0
    0.5876    3.7983    0.0000 O   0  0
    1.3026    3.3868    0.0000 C   0  0
    1.2984    2.5614    0.0000 C   0  0
    2.0126    2.1500    0.0000 C   0  0
    2.7274    2.5635    0.0000 C   0  0
    2.7237    3.3928    0.0000 C   0  0
    2.0089    3.8005    0.0000 C   0  0
    3.4430    2.1530    0.0000 O   0  0
    4.1542    2.5708    0.0000 C   0  0
    4.8718    2.1638    0.0000 F   0  0
    4.1479    3.3958    0.0000 F   0  0
    4.8667    2.9875    0.0000 F   0  0
   -4.4167    0.0917    0.0000 O   0  0
  1  2  1  0
  2  3  2  0
  3  4  1  0
  4  5  2  0
  5  6  1  0
  6  7  2  0
  7  2  1  0
  1  8  2  0
  1  9  2  0
 10 11  1  0
 10 13  1  0
 11 12  1  0
 12 15  1  0
 14 13  1  0
 14 15  1  0
 14 19  1  0
 15 16  1  0
 16 17  1  0
 17 18  1  0
 18 19  1  0
 16 20  1  0
 20 21  1  0
 20 22  2  0
 17  1  1  0
  5 23  1  0
 23 24  1  0
 24 25  2  0
 25 26  1  0
 26 27  2  0
 27 28  1  0
 28 29  2  0
 29 24  1  0
 27 30  1  0
 30 31  1  0
 31 32  1  0
 31 33  1  0
 31 34  1  0
 21 35  1  0
M  END
>  <ID_NEW>
CPDMM2092

>  <pIC50>
8.043975717719322

$$$$

  SciTegic12180812502D

 35 38  0  0  0  0            999 V2000
   -2.7150    2.4249    0.0000 N   0  0
   -5.8317    2.4894    0.0000 C   0  0
   -5.5437    1.7138    0.0000 C   0  0
   -4.7295    1.5768    0.0000 C   0  0
   -5.3090    3.1250    0.0000 C   0  0
   -4.2018    2.2175    0.0000 C   0  0
   -4.4958    2.9917    0.0000 C   0  0
   -4.0733    3.7106    0.0000 C   0  0
   -3.4071    1.9648    0.0000 C   0  0
   -3.2514    3.8311    0.0000 C   0  0
   -2.6487    3.2593    0.0000 C   0  0
   -3.2908    1.1480    0.0000 C   0  0
   -3.9399    0.6390    0.0000 O   0  0
   -2.0039    2.0067    0.0000 S   0  0
   -1.2861    2.4134    0.0000 C   0  0
   -1.4252    1.4186    0.0000 O   0  0
   -2.0105    1.1817    0.0000 O   0  0
   -0.5790    1.9927    0.0000 C   0  0
    0.1383    2.3987    0.0000 C   0  0
    0.1454    3.2246    0.0000 C   0  0
   -0.5707    3.6427    0.0000 C   0  0
   -1.2851    3.2342    0.0000 C   0  0
    0.8626    3.6322    0.0000 O   0  0
    1.5743    3.2149    0.0000 C   0  0
    1.5667    2.3906    0.0000 C   0  0
    2.2775    1.9734    0.0000 C   0  0
    2.9957    2.3811    0.0000 C   0  0
    2.9987    3.2104    0.0000 C   0  0
    2.2872    3.6239    0.0000 C   0  0
    3.7080    1.9648    0.0000 S   0  0
    4.4246    2.3734    0.0000 O   0  0
    3.1214    1.3846    0.0000 O   0  0
    4.4684    1.6449    0.0000 C   0  0
   -2.5253    0.8403    0.0000 N   0  0
   -2.4090    0.0236    0.0000 O   0  0
 14 16  2  0
 14 17  2  0
 15 18  2  0
 18 19  1  0
 19 20  2  0
 20 21  1  0
 21 22  2  0
 22 15  1  0
 20 23  1  0
 23 24  1  0
 24 25  2  0
 25 26  1  0
 26 27  2  0
 27 28  1  0
 28 29  2  0
 29 24  1  0
 27 30  1  0
 30 31  2  0
 30 32  2  0
 30 33  1  0
  2  3  2  0
  3  4  1  0
  4  6  2  0
  7  5  2  0
  5  2  1  0
  6  7  1  0
  7  8  1  0
  6  9  1  0
  8 10  1  0
  9  1  1  0
 10 11  1  0
  1 11  1  0
  9 12  1  0
 12 13  2  0
  1 14  1  0
 14 15  1  0
 12 34  1  0
 34 35  1  0
M  END
>  <ID_NEW>
CPDMM2093

>  <pIC50>
8.036920839358173

$$$$

  -MTS-   10172316422D 0   0.00000     0.00000     0

 33 36  0  0  1  0  0  0  0  0999 V2000
   -2.9330    1.8210    0.0000 N   0  0  0  0  0  0  0  0  0  0  0  0
   -5.8310    2.9710    0.0000 C   0  0  0  0  0  0  0  0  0  0  0  0
   -5.8320    2.1430    0.0000 C   0  0  0  0  0  0  0  0  0  0  0  0
   -5.1170    1.7310    0.0000 C   0  0  0  0  0  0  0  0  0  0  0  0
   -5.1190    3.3840    0.0000 C   0  0  0  0  0  0  0  0  0  0  0  0
   -4.3980    2.1460    0.0000 C   0  0  1  0  0  0  0  0  0  0  0  0
   -4.4030    2.9740    0.0000 C   0  0  2  0  0  0  0  0  0  0  0  0
   -3.7560    3.5000    0.0000 C   0  0  0  0  0  0  0  0  0  0  0  0
   -3.7420    1.6320    0.0000 C   0  0  2  0  0  0  0  0  0  0  0  0
   -2.9440    3.3260    0.0000 C   0  0  0  0  0  0  0  0  0  0  0  0
   -2.5790    2.5800    0.0000 C   0  0  0  0  0  0  0  0  0  0  0  0
   -3.9200    0.8260    0.0000 C   0  0  0  0  0  0  0  0  0  0  0  0
   -4.7070    0.5780    0.0000 N   0  0  0  0  0  0  0  0  0  0  0  0
   -3.3120    0.2690    0.0000 O   0  0  0  0  0  0  0  0  0  0  0  0
   -4.8850   -0.2280    0.0000 O   0  0  0  0  0  0  0  0  0  0  0  0
   -2.4130    1.1810    0.0000 S   0  0  0  0  0  0  0  0  0  0  0  0
   -1.6210    1.4000    0.0000 C   0  0  0  0  0  0  0  0  0  0  0  0
   -3.2170    0.9710    0.0000 O   0  0  0  0  0  0  0  0  0  0  0  0
   -2.4210    0.3580    0.0000 O   0  0  0  0  0  0  0  0  0  0  0  0
   -1.0360    0.8210    0.0000 C   0  0  0  0  0  0  0  0  0  0  0  0
   -0.2450    1.0400    0.0000 C   0  0  0  0  0  0  0  0  0  0  0  0
   -0.0380    1.8360    0.0000 C   0  0  0  0  0  0  0  0  0  0  0  0
   -0.6290    2.4130    0.0000 C   0  0  0  0  0  0  0  0  0  0  0  0
   -1.4180    2.1920    0.0000 C   0  0  0  0  0  0  0  0  0  0  0  0
    0.7570    2.0570    0.0000 C   0  0  0  0  0  0  0  0  0  0  0  0
    1.3450    1.4780    0.0000 C   0  0  0  0  0  0  0  0  0  0  0  0
    2.1390    1.6990    0.0000 C   0  0  0  0  0  0  0  0  0  0  0  0
    2.3450    2.4990    0.0000 C   0  0  0  0  0  0  0  0  0  0  0  0
    1.7520    3.0780    0.0000 C   0  0  0  0  0  0  0  0  0  0  0  0
    0.9600    2.8540    0.0000 C   0  0  0  0  0  0  0  0  0  0  0  0
    3.1400    2.7210    0.0000 Cl  0  0  0  0  0  0  0  0  0  0  0  0
   -4.4850    3.9710    0.0000 H   0  0  0  0  0  0  0  0  0  0  0  0
   -4.4690    1.1490    0.0000 H   0  0  0  0  0  0  0  0  0  0  0  0
  1 11  1  0  0  0  0
  9 12  1  1  0  0  0
 12 13  1  0  0  0  0
 12 14  2  0  0  0  0
 13 15  1  0  0  0  0
  1 16  1  0  0  0  0
 16 17  1  0  0  0  0
 16 18  2  0  0  0  0
 16 19  2  0  0  0  0
 17 20  2  0  0  0  0
 20 21  1  0  0  0  0
 21 22  2  0  0  0  0
 22 23  1  0  0  0  0
 23 24  2  0  0  0  0
 24 17  1  0  0  0  0
  2  3  1  0  0  0  0
  3  4  1  0  0  0  0
  4  6  1  0  0  0  0
  7  5  1  0  0  0  0
  5  2  1  0  0  0  0
  6  7  1  0  0  0  0
  7  8  1  0  0  0  0
  6  9  1  0  0  0  0
  8 10  1  0  0  0  0
  9  1  1  0  0  0  0
 10 11  1  0  0  0  0
 22 25  1  0  0  0  0
 25 26  2  0  0  0  0
 26 27  1  0  0  0  0
 27 28  2  0  0  0  0
 28 29  1  0  0  0  0
 29 30  2  0  0  0  0
 30 25  1  0  0  0  0
 28 31  1  0  0  0  0
  7 32  1  6  0  0  0
  6 33  1  6  0  0  0
M  END
>  <ID_NEW>
CPDMM2094

>  <pIC50>
8.025995203102584

$$$$

  SciTegic12180813012D

 33 36  0  0  0  0            999 V2000
   -5.9750    1.7958    0.0000 S   0  0
   -6.7042    1.7833    0.0000 N   0  0
   -7.0625    1.1458    0.0000 C   0  0
   -7.8125    1.1375    0.0000 C   0  0
   -6.6917    0.5083    0.0000 C   0  0
   -8.1917    1.7625    0.0000 C   0  0
   -7.0792    2.4208    0.0000 C   0  0
   -5.2333    1.8083    0.0000 C   0  0
   -1.0833   -1.3250    0.0000 N   0  0
   -5.9708    1.0625    0.0000 O   0  0
   -5.9875    2.5375    0.0000 O   0  0
   -8.1583    0.4958    0.0000 C   0  0
   -1.4750   -0.6792    0.0000 C   0  0
   -7.8292    2.4083    0.0000 C   0  0
   -5.9667    0.5208    0.0000 O   0  0
   -8.9292    1.7458    0.0000 C   0  0
   -7.0542   -0.1250    0.0000 N   0  0
   -4.8708    2.4583    0.0000 C   0  0
   -4.8583    1.1833    0.0000 C   0  0
   -3.0083    1.8583    0.0000 O   0  0
   -1.8625   -0.0500    0.0000 C   0  0
   -9.2792    1.1208    0.0000 C   0  0
   -3.7458    1.8333    0.0000 C   0  0
   -2.6333    1.2250    0.0000 C   0  0
   -8.8917    0.4833    0.0000 C   0  0
   -4.1333    2.4708    0.0000 C   0  0
   -4.1083    1.1958    0.0000 C   0  0
   -6.7000   -0.7667    0.0000 O   0  0
   -1.5000    0.5958    0.0000 C   0  0
   -2.6125   -0.0625    0.0000 C   0  0
   -1.8833    1.2375    0.0000 C   0  0
   -2.9875    0.5750    0.0000 C   0  0
  -10.0167    1.1000    0.0000 O   0  0
  2  1  1  0
  3  2  1  0
  4  3  1  0
  5  3  1  0
  6 14  1  0
  7  2  1  0
  8  1  1  0
  9 13  3  0
 10  1  2  0
 11  1  2  0
 12  4  2  0
 13 21  1  0
 14  7  1  0
 15  5  2  0
 16  6  2  0
 17  5  1  0
 18  8  1  0
 19  8  2  0
 20 23  1  0
 21 29  1  0
 22 16  1  0
 23 26  1  0
 24 20  1  0
 25 12  1  0
 26 18  2  0
 27 19  1  0
 28 17  1  0
 29 31  2  0
 30 32  1  0
 31 24  1  0
 32 24  2  0
 33 22  1  0
 23 27  2  0
  6  4  1  0
 22 25  2  0
 21 30  2  0
M  END
>  <ID_NEW>
CPDMM2095

>  <pIC50>
8.018226681372253

$$$$

  SciTegic12180812512D

 29 32  0  0  0  0            999 V2000
   -2.4224    0.8851    0.0000 S   0  0
   -3.0099    0.3017    0.0000 O   0  0
   -1.7099    1.3017    0.0000 C   0  0
   -2.0141    0.1726    0.0000 O   0  0
   -0.9933    0.8901    0.0000 C   0  0
   -0.2812    1.3061    0.0000 C   0  0
   -0.2854    2.1323    0.0000 C   0  0
   -1.0075    2.5408    0.0000 C   0  0
   -1.7166    2.1225    0.0000 C   0  0
   -3.8514    0.8865    0.0000 C   0  0
   -3.1368    1.2977    0.0000 N   0  0
   -3.1379    2.1227    0.0000 C   0  0
   -3.8535    2.5365    0.0000 C   0  0
   -3.8515    0.0615    0.0000 C   0  0
   -4.5652   -0.3523    0.0000 N   0  0
   -3.1362   -0.3524    0.0000 O   0  0
    0.4262    2.5497    0.0000 C   0  0
    1.1422    2.1383    0.0000 C   0  0
    1.8534    2.5550    0.0000 C   0  0
    1.8481    3.3809    0.0000 C   0  0
    1.1257    3.7882    0.0000 C   0  0
    0.4176    3.3691    0.0000 C   0  0
    2.5580    3.7995    0.0000 F   0  0
   -4.5624    1.2958    0.0000 C   0  0
   -4.5680    2.1172    0.0000 C   0  0
   -5.3509    2.3658    0.0000 O   0  0
   -5.8293    1.6979    0.0000 C   0  0
   -5.3419    1.0367    0.0000 C   0  0
   -4.5709   -1.1750    0.0000 O   0  0
 11  1  1  0
  7 17  1  0
 17 18  2  0
 18 19  1  0
 19 20  2  0
 20 21  1  0
 21 22  2  0
 22 17  1  0
 20 23  1  0
 24 25  1  0
 25 26  1  0
 26 27  1  0
 27 28  1  0
 28 24  1  0
 15 29  1  0
  1  2  2  0
  1  3  1  0
  1  4  2  0
  3  5  2  0
  5  6  1  0
  6  7  2  0
  7  8  1  0
  8  9  2  0
  9  3  1  0
 25 13  1  0
 24 10  1  0
 10 11  1  0
 11 12  1  0
 12 13  1  0
 10 14  1  0
 14 15  1  0
 14 16  2  0
M  END
>  <ID_NEW>
CPDMM2096

>  <pIC50>
8.011307297450182

$$$$

  -MTS-   10172316422D 0   0.00000     0.00000     0

 37 40  0  0  1  0  0  0  0  0999 V2000
   -4.3770    2.4050    0.0000 C   0  0  1  0  0  0  0  0  0  0  0  0
   -3.8900    2.6850    0.0000 N   0  0  0  0  0  0  0  0  0  0  0  0
   -3.8930    3.2430    0.0000 C   0  0  0  0  0  0  0  0  0  0  0  0
   -4.3830    3.5210    0.0000 C   0  0  0  0  0  0  0  0  0  0  0  0
   -4.3740    1.8470    0.0000 C   0  0  0  0  0  0  0  0  0  0  0  0
   -4.8530    1.5750    0.0000 N   0  0  0  0  0  0  0  0  0  0  0  0
   -3.8910    1.5740    0.0000 O   0  0  0  0  0  0  0  0  0  0  0  0
   -2.9260    2.1290    0.0000 C   0  0  0  0  0  0  0  0  0  0  0  0
   -2.9270    1.5770    0.0000 C   0  0  0  0  0  0  0  0  0  0  0  0
   -2.4500    1.2970    0.0000 C   0  0  0  0  0  0  0  0  0  0  0  0
   -1.9670    1.5770    0.0000 C   0  0  0  0  0  0  0  0  0  0  0  0
   -1.9700    2.1330    0.0000 C   0  0  0  0  0  0  0  0  0  0  0  0
   -2.4520    2.4090    0.0000 C   0  0  0  0  0  0  0  0  0  0  0  0
   -3.4070    2.4080    0.0000 S   0  0  0  0  0  0  0  0  0  0  0  0
   -3.0170    2.8040    0.0000 O   0  0  0  0  0  0  0  0  0  0  0  0
   -3.8040    2.0170    0.0000 O   0  0  0  0  0  0  0  0  0  0  0  0
   -4.8580    2.6790    0.0000 C   0  0  2  0  0  0  0  0  0  0  0  0
   -4.8650    3.2410    0.0000 C   0  0  1  0  0  0  0  0  0  0  0  0
   -5.3500    3.5180    0.0000 C   0  0  0  0  0  0  0  0  0  0  0  0
   -5.8330    3.2410    0.0000 C   0  0  0  0  0  0  0  0  0  0  0  0
   -5.8300    2.6790    0.0000 C   0  0  0  0  0  0  0  0  0  0  0  0
   -5.3450    2.3930    0.0000 C   0  0  0  0  0  0  0  0  0  0  0  0
   -4.8470    1.0160    0.0000 O   0  0  0  0  0  0  0  0  0  0  0  0
   -1.4830    1.3000    0.0000 O   0  0  0  0  0  0  0  0  0  0  0  0
   -1.0000    1.5800    0.0000 C   0  0  0  0  0  0  0  0  0  0  0  0
   -0.5180    1.3020    0.0000 C   0  0  0  0  0  0  0  0  0  0  0  0
   -0.0350    1.5820    0.0000 C   0  0  0  0  0  0  0  0  0  0  0  0
   -0.0370    2.1410    0.0000 C   0  0  0  0  0  0  0  0  0  0  0  0
   -0.5250    2.4180    0.0000 C   0  0  0  0  0  0  0  0  0  0  0  0
   -1.0050    2.1370    0.0000 C   0  0  0  0  0  0  0  0  0  0  0  0
    0.4460    2.4230    0.0000 O   0  0  0  0  0  0  0  0  0  0  0  0
    0.9310    2.1450    0.0000 C   0  0  0  0  0  0  0  0  0  0  0  0
    1.4140    2.4270    0.0000 F   0  0  0  0  0  0  0  0  0  0  0  0
    0.9340    1.5870    0.0000 F   0  0  0  0  0  0  0  0  0  0  0  0
    0.7840    2.6850    0.0000 F   0  0  0  0  0  0  0  0  0  0  0  0
   -4.8690    4.2410    0.0000 H   0  0  0  0  0  0  0  0  0  0  0  0
   -4.8510    1.6790    0.0000 H   0  0  0  0  0  0  0  0  0  0  0  0
 18  4  1  0  0  0  0
 17  1  1  0  0  0  0
  1  2  1  0  0  0  0
  2  3  1  0  0  0  0
  3  4  1  0  0  0  0
  1  5  1  1  0  0  0
  5  6  1  0  0  0  0
  5  7  2  0  0  0  0
  2 14  1  0  0  0  0
  8  9  2  0  0  0  0
  9 10  1  0  0  0  0
 10 11  2  0  0  0  0
 11 12  1  0  0  0  0
 12 13  2  0  0  0  0
 13  8  1  0  0  0  0
  8 14  1  0  0  0  0
 14 15  2  0  0  0  0
 14 16  2  0  0  0  0
 17 18  1  0  0  0  0
 17 22  1  0  0  0  0
 18 19  1  0  0  0  0
 19 20  1  0  0  0  0
 20 21  1  0  0  0  0
 21 22  1  0  0  0  0
  6 23  1  0  0  0  0
 11 24  1  0  0  0  0
 24 25  1  0  0  0  0
 25 26  2  0  0  0  0
 26 27  1  0  0  0  0
 27 28  2  0  0  0  0
 28 29  1  0  0  0  0
 29 30  2  0  0  0  0
 30 25  1  0  0  0  0
 28 31  1  0  0  0  0
 31 32  1  0  0  0  0
 32 33  1  0  0  0  0
 32 34  1  0  0  0  0
 32 35  1  0  0  0  0
 18 36  1  6  0  0  0
 17 37  1  6  0  0  0
M  END
>  <ID_NEW>
CPDMM2097

>  <pIC50>
8.01120906749259

$$$$

  SciTegic12180812562D

 36 39  0  0  0  0            999 V2000
    1.8584    2.1749    0.0000 C   0  0
    1.0334    2.1791    0.0000 O   0  0
    2.2654    1.4561    0.0000 C   0  0
    3.0896    1.4516    0.0000 C   0  0
    3.5065    2.1645    0.0000 C   0  0
    3.0932    2.8834    0.0000 C   0  0
    2.2703    2.8844    0.0000 C   0  0
    4.3315    2.1614    0.0000 O   0  0
    4.7414    1.4454    0.0000 C   0  0
    5.5664    1.4423    0.0000 C   0  0
    5.9762    0.7263    0.0000 F   0  0
    5.9815    2.1553    0.0000 F   0  0
    6.3584    1.2333    0.0000 F   0  0
    0.2084    2.1791    0.0000 C   0  0
   -0.2023    2.8959    0.0000 C   0  0
   -1.0265    2.8963    0.0000 C   0  0
   -1.4399    2.1812    0.0000 C   0  0
   -1.0229    1.4644    0.0000 C   0  0
   -0.2000    1.4675    0.0000 C   0  0
   -2.2649    2.1801    0.0000 S   0  0
   -2.2708    3.0083    0.0000 O   0  0
   -2.2708    1.3583    0.0000 O   0  0
   -4.4069    2.5878    0.0000 C   0  0
   -4.4069    3.4167    0.0000 C   0  0
   -3.6960    2.1710    0.0000 C   0  0
   -5.1171    2.1772    0.0000 C   0  0
   -3.6960    3.8328    0.0000 C   0  0
   -5.1171    3.8273    0.0000 C   0  0
   -2.9803    2.5878    0.0000 N   0  0
   -3.6960    1.3525    0.0000 C   0  0
   -5.8315    2.5878    0.0000 C   0  0
   -2.9803    3.4167    0.0000 C   0  0
   -5.8315    3.4167    0.0000 C   0  0
   -2.9919    0.9302    0.0000 O   0  0
   -4.4139    0.9460    0.0000 N   0  0
   -4.4208    0.1250    0.0000 O   0  0
  1  2  1  0
  1  3  2  0
  3  4  1  0
  4  5  2  0
  5  6  1  0
  6  7  2  0
  7  1  1  0
  5  8  1  0
  8  9  1  0
  9 10  1  0
 10 11  1  0
 10 12  1  0
 10 13  1  0
  2 14  1  0
 14 15  2  0
 15 16  1  0
 16 17  2  0
 17 18  1  0
 18 19  2  0
 19 14  1  0
 17 20  1  0
 20 21  2  0
 20 22  2  0
 23 24  2  0
 23 25  1  0
 23 26  1  0
 24 27  1  0
 24 28  1  0
 25 29  1  0
 25 30  1  0
 26 31  1  0
 27 32  1  0
 28 33  1  0
 30 34  2  0
 29 32  1  0
 31 33  1  0
 29 20  1  0
 30 35  1  0
 35 36  1  0
M  END
>  <ID_NEW>
CPDMM2098

>  <pIC50>
8.00638744206111

$$$$

  -MTS-   10172316422D 0   0.00000     0.00000     0

 29 32  0  0  1  0  0  0  0  0999 V2000
   -0.6430   -0.3710    0.0000 C   0  0  0  0  0  0  0  0  0  0  0  0
   -0.6440   -1.1770    0.0000 C   0  0  0  0  0  0  0  0  0  0  0  0
    0.0830   -1.5780    0.0000 C   0  0  0  0  0  0  0  0  0  0  0  0
    0.0810    0.0380    0.0000 C   0  0  0  0  0  0  0  0  0  0  0  0
    0.8050   -0.3670    0.0000 C   0  0  0  0  0  0  0  0  0  0  0  0
    0.8040   -1.1750    0.0000 C   0  0  0  0  0  0  0  0  0  0  0  0
    1.5230   -1.5780    0.0000 C   0  0  0  0  0  0  0  0  0  0  0  0
    2.2560   -1.1780    0.0000 N   0  0  0  0  0  0  0  0  0  0  0  0
    2.2570   -0.3700    0.0000 C   0  0  2  0  0  0  0  0  0  0  0  0
    1.5250    0.0380    0.0000 C   0  0  0  0  0  0  0  0  0  0  0  0
    2.9870    0.0410    0.0000 C   0  0  0  0  0  0  0  0  0  0  0  0
    3.7110   -0.3730    0.0000 N   0  0  0  0  0  0  0  0  0  0  0  0
    2.9880    0.8450    0.0000 O   0  0  0  0  0  0  0  0  0  0  0  0
    2.9840   -1.5840    0.0000 S   0  0  0  0  0  0  0  0  0  0  0  0
    3.7200   -1.9960    0.0000 C   0  0  0  0  0  0  0  0  0  0  0  0
    3.4120   -0.8820    0.0000 O   0  0  0  0  0  0  0  0  0  0  0  0
    2.5620   -2.2950    0.0000 O   0  0  0  0  0  0  0  0  0  0  0  0
    3.7150   -2.8170    0.0000 C   0  0  0  0  0  0  0  0  0  0  0  0
    4.4460   -3.2290    0.0000 C   0  0  0  0  0  0  0  0  0  0  0  0
    5.1850   -2.8220    0.0000 C   0  0  0  0  0  0  0  0  0  0  0  0
    5.1850   -1.9970    0.0000 C   0  0  0  0  0  0  0  0  0  0  0  0
    4.4540   -1.5930    0.0000 C   0  0  0  0  0  0  0  0  0  0  0  0
    5.8950   -3.2410    0.0000 C   0  0  0  0  0  0  0  0  0  0  0  0
    5.8850   -4.0630    0.0000 C   0  0  0  0  0  0  0  0  0  0  0  0
    6.5940   -4.4830    0.0000 N   0  0  0  0  0  0  0  0  0  0  0  0
    7.3140   -4.0780    0.0000 C   0  0  0  0  0  0  0  0  0  0  0  0
    7.3190   -3.2490    0.0000 C   0  0  0  0  0  0  0  0  0  0  0  0
    6.6090   -2.8330    0.0000 C   0  0  0  0  0  0  0  0  0  0  0  0
    4.4240    0.0420    0.0000 O   0  0  0  0  0  0  0  0  0  0  0  0
 22 15  1  0  0  0  0
  5  6  1  0  0  0  0
  9 11  1  6  0  0  0
 11 12  1  0  0  0  0
  2  3  1  0  0  0  0
 11 13  2  0  0  0  0
  3  6  2  0  0  0  0
  8 14  1  0  0  0  0
  1  2  2  0  0  0  0
 14 15  1  0  0  0  0
  5  4  2  0  0  0  0
 14 16  2  0  0  0  0
  4  1  1  0  0  0  0
 14 17  2  0  0  0  0
  5 10  1  0  0  0  0
 15 18  2  0  0  0  0
  6  7  1  0  0  0  0
 18 19  1  0  0  0  0
 20 23  1  0  0  0  0
  7  8  1  0  0  0  0
 23 24  2  0  0  0  0
 19 20  2  0  0  0  0
 24 25  1  0  0  0  0
  8  9  1  0  0  0  0
 25 26  2  0  0  0  0
 20 21  1  0  0  0  0
 26 27  1  0  0  0  0
  9 10  1  0  0  0  0
 27 28  2  0  0  0  0
 28 23  1  0  0  0  0
 21 22  2  0  0  0  0
 12 29  1  0  0  0  0
M  END
>  <ID_NEW>
CPDMM2099

>  <pIC50>
8.0

$$$$

  -MTS-   10172316422D 0   0.00000     0.00000     0

 34 37  0  0  1  0  0  0  0  0999 V2000
   -2.9330    1.8210    0.0000 N   0  0  0  0  0  0  0  0  0  0  0  0
   -5.8310    2.9710    0.0000 C   0  0  0  0  0  0  0  0  0  0  0  0
   -5.8320    2.1430    0.0000 C   0  0  0  0  0  0  0  0  0  0  0  0
   -5.1170    1.7310    0.0000 C   0  0  0  0  0  0  0  0  0  0  0  0
   -5.1190    3.3840    0.0000 C   0  0  0  0  0  0  0  0  0  0  0  0
   -4.3980    2.1460    0.0000 C   0  0  1  0  0  0  0  0  0  0  0  0
   -4.4030    2.9740    0.0000 C   0  0  2  0  0  0  0  0  0  0  0  0
   -3.7560    3.5000    0.0000 C   0  0  0  0  0  0  0  0  0  0  0  0
   -3.7420    1.6320    0.0000 C   0  0  2  0  0  0  0  0  0  0  0  0
   -2.9440    3.3260    0.0000 C   0  0  0  0  0  0  0  0  0  0  0  0
   -2.5790    2.5800    0.0000 C   0  0  0  0  0  0  0  0  0  0  0  0
   -3.9200    0.8260    0.0000 C   0  0  0  0  0  0  0  0  0  0  0  0
   -4.7070    0.5780    0.0000 N   0  0  0  0  0  0  0  0  0  0  0  0
   -3.3120    0.2690    0.0000 O   0  0  0  0  0  0  0  0  0  0  0  0
   -4.8850   -0.2280    0.0000 O   0  0  0  0  0  0  0  0  0  0  0  0
   -2.4130    1.1810    0.0000 S   0  0  0  0  0  0  0  0  0  0  0  0
   -1.6210    1.4000    0.0000 C   0  0  0  0  0  0  0  0  0  0  0  0
   -3.2170    0.9710    0.0000 O   0  0  0  0  0  0  0  0  0  0  0  0
   -2.4210    0.3580    0.0000 O   0  0  0  0  0  0  0  0  0  0  0  0
   -1.0360    0.8210    0.0000 C   0  0  0  0  0  0  0  0  0  0  0  0
   -0.2450    1.0400    0.0000 C   0  0  0  0  0  0  0  0  0  0  0  0
   -0.0380    1.8360    0.0000 C   0  0  0  0  0  0  0  0  0  0  0  0
   -0.6290    2.4130    0.0000 C   0  0  0  0  0  0  0  0  0  0  0  0
   -1.4180    2.1920    0.0000 C   0  0  0  0  0  0  0  0  0  0  0  0
    0.7570    2.0570    0.0000 C   0  0  0  0  0  0  0  0  0  0  0  0
    1.3450    1.4780    0.0000 C   0  0  0  0  0  0  0  0  0  0  0  0
    2.1390    1.6990    0.0000 C   0  0  0  0  0  0  0  0  0  0  0  0
    2.3460    2.4990    0.0000 C   0  0  0  0  0  0  0  0  0  0  0  0
    1.7520    3.0780    0.0000 C   0  0  0  0  0  0  0  0  0  0  0  0
    0.9600    2.8540    0.0000 C   0  0  0  0  0  0  0  0  0  0  0  0
    3.1360    2.7240    0.0000 C   0  0  0  0  0  0  0  0  0  0  0  0
    3.9310    2.9470    0.0000 N   0  0  0  0  0  0  0  0  0  0  0  0
   -4.4850    3.9710    0.0000 H   0  0  0  0  0  0  0  0  0  0  0  0
   -4.4690    1.1490    0.0000 H   0  0  0  0  0  0  0  0  0  0  0  0
  1 11  1  0  0  0  0
  9 12  1  1  0  0  0
 12 13  1  0  0  0  0
 12 14  2  0  0  0  0
 13 15  1  0  0  0  0
  1 16  1  0  0  0  0
 16 17  1  0  0  0  0
 16 18  2  0  0  0  0
 16 19  2  0  0  0  0
 17 20  2  0  0  0  0
 20 21  1  0  0  0  0
 21 22  2  0  0  0  0
 22 23  1  0  0  0  0
 23 24  2  0  0  0  0
 24 17  1  0  0  0  0
  2  3  1  0  0  0  0
  3  4  1  0  0  0  0
  4  6  1  0  0  0  0
  7  5  1  0  0  0  0
  5  2  1  0  0  0  0
  6  7  1  0  0  0  0
  7  8  1  0  0  0  0
  6  9  1  0  0  0  0
  8 10  1  0  0  0  0
  9  1  1  0  0  0  0
 10 11  1  0  0  0  0
 22 25  1  0  0  0  0
 25 26  2  0  0  0  0
 26 27  1  0  0  0  0
 27 28  2  0  0  0  0
 28 29  1  0  0  0  0
 29 30  2  0  0  0  0
 30 25  1  0  0  0  0
 31 32  3  0  0  0  0
 28 31  1  0  0  0  0
  7 33  1  6  0  0  0
  6 34  1  6  0  0  0
M  END
>  <ID_NEW>
CPDMM2100

>  <pIC50>
7.977777895492293

$$$$

  -MTS-   10172316422D 0   0.00000     0.00000     0

 32 35  0  0  0  0  0  0  0  0999 V2000
    3.5010    1.7240    0.0000 Cl  0  0  0  0  0  0  0  0  0  0  0  0
    2.6760    1.7250    0.0000 C   0  0  0  0  0  0  0  0  0  0  0  0
    2.2660    2.4430    0.0000 C   0  0  0  0  0  0  0  0  0  0  0  0
    1.4420    2.4450    0.0000 C   0  0  0  0  0  0  0  0  0  0  0  0
    1.0270    1.7310    0.0000 C   0  0  0  0  0  0  0  0  0  0  0  0
    1.4430    1.0130    0.0000 C   0  0  0  0  0  0  0  0  0  0  0  0
    2.2660    1.0150    0.0000 C   0  0  0  0  0  0  0  0  0  0  0  0
    0.2020    1.7320    0.0000 C   0  0  0  0  0  0  0  0  0  0  0  0
   -0.2050    2.4490    0.0000 C   0  0  0  0  0  0  0  0  0  0  0  0
   -1.0290    2.4500    0.0000 C   0  0  0  0  0  0  0  0  0  0  0  0
   -1.4430    1.7350    0.0000 C   0  0  0  0  0  0  0  0  0  0  0  0
   -1.0270    1.0180    0.0000 C   0  0  0  0  0  0  0  0  0  0  0  0
   -0.2040    1.0210    0.0000 C   0  0  0  0  0  0  0  0  0  0  0  0
   -2.2680    1.7350    0.0000 S   0  0  0  0  0  0  0  0  0  0  0  0
   -2.2690    2.5600    0.0000 O   0  0  0  0  0  0  0  0  0  0  0  0
   -2.2690    0.9100    0.0000 O   0  0  0  0  0  0  0  0  0  0  0  0
   -5.8330    2.9710    0.0000 C   0  0  0  0  0  0  0  0  0  0  0  0
   -5.8330    2.1460    0.0000 C   0  0  0  0  0  0  0  0  0  0  0  0
   -5.1210    1.7370    0.0000 C   0  0  0  0  0  0  0  0  0  0  0  0
   -5.1210    3.3870    0.0000 C   0  0  0  0  0  0  0  0  0  0  0  0
   -4.4090    2.9710    0.0000 C   0  0  1  0  0  0  0  0  0  0  0  0
   -4.4080    2.1460    0.0000 C   0  0  1  0  0  0  0  0  0  0  0  0
   -3.6970    1.7370    0.0000 C   0  0  1  0  0  0  0  0  0  0  0  0
   -2.9830    2.1480    0.0000 N   0  0  0  0  0  0  0  0  0  0  0  0
   -2.9840    2.9730    0.0000 C   0  0  0  0  0  0  0  0  0  0  0  0
   -3.6990    3.3870    0.0000 C   0  0  0  0  0  0  0  0  0  0  0  0
   -3.6970    0.9120    0.0000 C   0  0  0  0  0  0  0  0  0  0  0  0
   -4.4110    0.4980    0.0000 N   0  0  0  0  0  0  0  0  0  0  0  0
   -2.9820    0.4980    0.0000 O   0  0  0  0  0  0  0  0  0  0  0  0
   -4.4170   -0.3250    0.0000 O   0  0  0  0  0  0  0  0  0  0  0  0
   -4.4090    1.1460    0.0000 H   0  0  0  0  0  0  0  0  0  0  0  0
   -4.4090    3.9710    0.0000 H   0  0  0  0  0  0  0  0  0  0  0  0
  1  2  1  0  0  0  0
  2  3  2  0  0  0  0
  3  4  1  0  0  0  0
  4  5  2  0  0  0  0
  5  6  1  0  0  0  0
  6  7  2  0  0  0  0
  7  2  1  0  0  0  0
  5  8  1  0  0  0  0
  8  9  2  0  0  0  0
  9 10  1  0  0  0  0
 10 11  2  0  0  0  0
 11 12  1  0  0  0  0
 12 13  2  0  0  0  0
 13  8  1  0  0  0  0
 11 14  1  0  0  0  0
 14 15  2  0  0  0  0
 14 16  2  0  0  0  0
 17 18  1  0  0  0  0
 17 20  1  0  0  0  0
 18 19  1  0  0  0  0
 19 22  1  0  0  0  0
 21 20  1  0  0  0  0
 21 22  1  0  0  0  0
 21 26  1  0  0  0  0
 22 23  1  0  0  0  0
 23 24  1  0  0  0  0
 24 25  1  0  0  0  0
 25 26  1  0  0  0  0
 23 27  1  1  0  0  0
 27 28  1  0  0  0  0
 27 29  2  0  0  0  0
 24 14  1  0  0  0  0
 28 30  1  0  0  0  0
 22 31  1  6  0  0  0
 21 32  1  1  0  0  0
V   21 M1
V   22 M1
V   23 M1
M  END
>  <ID_NEW>
CPDMM2101

>  <pIC50>
7.958607314841775

$$$$

  SciTegic12180812532D

 29 32  0  0  0  0            999 V2000
   -5.3290    3.4876    0.0000 O   0  0
   -5.8311    2.8256    0.0000 C   0  0
   -5.3557    2.1464    0.0000 C   0  0
   -4.5468    3.2172    0.0000 C   0  0
   -4.5651    2.3902    0.0000 C   0  0
   -3.8591    1.9627    0.0000 C   0  0
   -3.1344    2.3610    0.0000 N   0  0
   -3.1201    3.1913    0.0000 C   0  0
   -3.8267    3.6150    0.0000 C   0  0
   -3.8743    1.1363    0.0000 C   0  0
   -4.5972    0.7388    0.0000 N   0  0
   -3.1686    0.7089    0.0000 O   0  0
   -2.4279    1.9349    0.0000 S   0  0
   -1.6333    2.1541    0.0000 C   0  0
   -1.0473    1.5729    0.0000 C   0  0
   -0.2533    1.7915    0.0000 C   0  0
   -0.0452    2.5901    0.0000 C   0  0
   -0.6373    3.1697    0.0000 C   0  0
   -1.4290    2.9480    0.0000 C   0  0
    0.7498    2.8105    0.0000 C   0  0
    1.3358    2.2311    0.0000 C   0  0
    2.1302    2.4510    0.0000 C   0  0
    2.3374    3.2505    0.0000 C   0  0
    1.7441    3.8298    0.0000 C   0  0
    0.9520    3.6069    0.0000 C   0  0
    3.1321    3.4720    0.0000 Cl  0  0
   -3.0166    1.3541    0.0000 O   0  0
   -2.0208    1.2250    0.0000 O   0  0
   -4.6042   -0.0833    0.0000 O   0  0
  2  3  2  0
 13 14  1  0
  1  2  1  0
 14 15  2  0
  3  5  1  0
 15 16  1  0
  4  1  1  0
 16 17  2  0
  4  5  2  0
 17 18  1  0
  5  6  1  0
 18 19  2  0
 19 14  1  0
  6  7  1  0
 17 20  1  0
  7  8  1  0
 20 21  2  0
  8  9  1  0
 21 22  1  0
  9  4  1  0
 22 23  2  0
 10 11  1  0
 23 24  1  0
 10 12  2  0
 24 25  2  0
 25 20  1  0
  6 10  1  0
 23 26  1  0
 13 27  2  0
  7 13  1  0
 13 28  2  0
 11 29  1  0
M  END
>  <ID_NEW>
CPDMM2102

>  <pIC50>
7.9484616094846725

$$$$

  SciTegic12180812502D

 33 36  0  0  0  0            999 V2000
   -3.0025    2.4874    0.0000 N   0  0
   -5.8317    2.5478    0.0000 C   0  0
   -5.5688    1.8054    0.0000 C   0  0
   -4.8254    1.6727    0.0000 C   0  0
   -5.3549    3.1583    0.0000 C   0  0
   -4.3518    2.2884    0.0000 C   0  0
   -4.6208    3.0376    0.0000 C   0  0
   -4.2357    3.7148    0.0000 C   0  0
   -3.6321    2.0482    0.0000 C   0  0
   -3.4931    3.8311    0.0000 C   0  0
   -2.9445    3.2926    0.0000 C   0  0
   -3.5199    1.2647    0.0000 C   0  0
   -4.1066    0.7723    0.0000 O   0  0
   -2.3581    2.0859    0.0000 S   0  0
   -1.7111    2.4759    0.0000 C   0  0
   -2.3605    1.3025    0.0000 O   0  0
   -1.0624    2.0718    0.0000 C   0  0
   -0.4158    2.4612    0.0000 C   0  0
   -0.4129    3.2496    0.0000 C   0  0
   -1.0582    3.6468    0.0000 C   0  0
   -1.7101    3.2592    0.0000 C   0  0
    0.2377    3.6446    0.0000 O   0  0
    0.8909    3.2399    0.0000 C   0  0
    0.8833    2.4613    0.0000 C   0  0
    1.5233    2.0527    0.0000 C   0  0
    2.1749    2.4436    0.0000 C   0  0
    2.1737    3.2354    0.0000 C   0  0
    1.5372    3.6364    0.0000 C   0  0
   -2.7806    0.9820    0.0000 N   0  0
   -2.6557    0.2004    0.0000 O   0  0
   -2.1694    2.8213    0.0000 O   0  0
    2.8200    2.0456    0.0000 C   0  0
    3.4338    1.6959    0.0000 N   0  0
  8 10  1  0
  9  1  1  0
 12 29  1  0
 29 30  1  0
 14 31  2  0
 10 11  1  0
  1 11  1  0
  9 12  1  0
 12 13  2  0
  1 14  1  0
 14 15  1  0
 26 32  1  0
 14 16  2  0
 15 17  2  0
 17 18  1  0
 18 19  2  0
 19 20  1  0
 20 21  2  0
 21 15  1  0
 19 22  1  0
 22 23  1  0
 23 24  2  0
 24 25  1  0
 25 26  2  0
 26 27  1  0
 27 28  2  0
 28 23  1  0
  2  3  2  0
  3  4  1  0
  4  6  2  0
  7  5  2  0
  5  2  1  0
  6  7  1  0
  7  8  1  0
  6  9  1  0
 32 33  3  0
M  STY  1   1 SUP
M  SLB  1   1   1
M  SAL   1  2  32  33
M  SBL   1  1  12
M  SMT   1 CN
M  SBV   1  12   -0.6400    0.4000
M  END
>  <ID_NEW>
CPDMM2103

>  <pIC50>
7.936929474357039

$$$$

  SciTegic12180812572D

 35 38  0  0  0  0            999 V2000
   -2.3264    2.1583    0.0000 C   0  0
   -2.9732    1.8869    0.0000 S   0  0
   -2.4183    1.4687    0.0000 O   0  0
   -3.3928    1.3361    0.0000 O   0  0
   -1.7769    1.7295    0.0000 C   0  0
   -1.1297    2.0002    0.0000 C   0  0
   -1.0447    2.6901    0.0000 C   0  0
   -1.6008    3.1123    0.0000 C   0  0
   -2.2382    2.8430    0.0000 C   0  0
   -5.8375    3.4041    0.0000 C   0  0
   -5.8375    2.7041    0.0000 C   0  0
   -5.2370    2.3625    0.0000 C   0  0
   -5.2370    3.7541    0.0000 C   0  0
   -4.6324    3.4041    0.0000 C   0  0
   -4.0905    3.8317    0.0000 C   0  0
   -3.4128    3.6754    0.0000 C   0  0
   -3.1151    3.0587    0.0000 C   0  0
   -4.6250    2.7041    0.0000 C   0  0
   -3.4152    2.4320    0.0000 N   0  0
   -4.0845    2.2736    0.0000 C   0  0
   -4.2402    1.5918    0.0000 C   0  0
   -4.9067    1.3886    0.0000 N   0  0
   -3.7254    1.1195    0.0000 O   0  0
   -0.4027    2.9596    0.0000 O   0  0
    0.1515    2.5389    0.0000 C   0  0
    0.0647    1.8502    0.0000 C   0  0
    0.6196    1.4296    0.0000 C   0  0
    1.2608    1.6990    0.0000 C   0  0
    1.3418    2.3931    0.0000 C   0  0
    0.7878    2.8107    0.0000 C   0  0
   -5.2542    0.7917    0.0000 O   0  0
    1.8167    1.2811    0.0000 S   0  0
    2.3083    0.7917    0.0000 C   0  0
    2.3083    1.7792    0.0000 O   0  0
    1.3208    0.7917    0.0000 O   0  0
 27 28  2  0
 28 29  1  0
 29 30  2  0
 30 25  1  0
 22 31  1  0
  1  2  1  0
  2  3  2  0
  2  4  2  0
  1  5  2  0
  5  6  1  0
  6  7  2  0
  7  8  1  0
  8  9  2  0
  9  1  1  0
 10 11  1  0
 10 13  1  0
 11 12  1  0
 12 18  1  0
 14 13  1  0
 14 15  1  0
 15 16  1  0
 16 17  1  0
 14 18  1  0
 17 19  1  0
 18 20  1  0
 19 20  1  0
 21 22  1  0
 21 23  2  0
 20 21  1  0
 19  2  1  0
  7 24  1  0
 24 25  1  0
 25 26  2  0
 26 27  1  0
 28 32  1  0
 32 33  1  0
 32 34  2  0
 32 35  2  0
M  END
>  <ID_NEW>
CPDMM2104

>  <pIC50>
7.925037356868373

$$$$

  SciTegic12180812542D

 34 38  0  0  0  0            999 V2000
   -2.2333    2.1750    0.0000 S   0  0
   -2.9500    2.5917    0.0000 N   0  0
   -3.6750    2.1875    0.0000 C   0  0
   -1.5167    1.7625    0.0000 C   0  0
   -3.6750    1.3667    0.0000 C   0  0
   -4.3917    2.6042    0.0000 C   0  0
   -2.9500    3.4333    0.0000 C   0  0
    2.8000    1.7458    0.0000 C   0  0
    2.0708    2.1625    0.0000 C   0  0
   -1.8167    2.8958    0.0000 O   0  0
   -2.6417    1.4708    0.0000 O   0  0
   -0.7958    0.5167    0.0000 N   0  0
    3.4083    2.3000    0.0000 C   0  0
   -0.0708    0.9208    0.0000 C   0  0
    2.8000    0.9167    0.0000 C   0  0
   -1.5167    0.9333    0.0000 C   0  0
   -4.3917    3.4208    0.0000 C   0  0
    1.3458    1.7458    0.0000 C   0  0
   -2.9500    0.9500    0.0000 O   0  0
    1.3458    0.9167    0.0000 C   0  0
    0.6417    0.5083    0.0000 O   0  0
    2.2333    2.9625    0.0000 C   0  0
   -0.8042    2.1750    0.0000 C   0  0
   -3.6750    3.8333    0.0000 C   0  0
   -4.3833    0.9500    0.0000 N   0  0
    3.0667    3.0625    0.0000 C   0  0
    4.2208    2.1250    0.0000 O   0  0
    2.0708    0.4958    0.0000 C   0  0
   -0.0792    1.7625    0.0000 C   0  0
   -4.3833    0.1333    0.0000 O   0  0
   -5.1000    2.1875    0.0000 C   0  0
   -5.1125    3.8333    0.0000 C   0  0
   -5.8250    2.6042    0.0000 C   0  0
   -5.8333    3.4333    0.0000 C   0  0
 34 32  1  0
 17  6  1  0
 12 14  2  0
 34 33  2  0
  9  8  2  0
 26 13  1  0
  2  1  1  0
  3  2  1  0
  4  1  1  0
  5  3  1  0
  6  3  1  0
  7  2  1  0
  8 15  1  0
  9 18  1  0
 10  1  2  0
 11  1  2  0
 12 16  1  0
 13  8  1  0
 14 29  1  0
 15 28  2  0
 16  4  2  0
 17 24  1  0
 18 20  2  0
 19  5  2  0
 20 21  1  0
 21 14  1  0
 22  9  1  0
 23  4  1  0
 24  7  1  0
 25  5  1  0
 26 22  1  0
 27 13  2  0
 28 20  1  0
 29 23  2  0
 30 25  1  0
 31  6  2  0
 32 17  2  0
 33 31  1  0
M  END
>  <ID_NEW>
CPDMM2105

>  <pIC50>
7.920818753952375

$$$$

  SciTegic12180812482D

 32 35  0  0  0  0            999 V2000
   -0.1045    2.4062    0.0000 C   0  0
    0.4383    1.7834    0.0000 C   0  0
    1.2467    1.9441    0.0000 C   0  0
    1.5123    2.7261    0.0000 C   0  0
    0.9634    3.3477    0.0000 C   0  0
    0.1570    3.1838    0.0000 C   0  0
    2.3212    2.8884    0.0000 C   0  0
    2.8624    2.2656    0.0000 C   0  0
    3.6706    2.4274    0.0000 C   0  0
    3.9352    3.2098    0.0000 C   0  0
    3.3854    3.8306    0.0000 C   0  0
    2.5792    3.6656    0.0000 C   0  0
    4.7438    3.3731    0.0000 Cl  0  0
   -5.8306    3.2250    0.0000 C   0  0
   -5.8318    2.3977    0.0000 C   0  0
   -5.1169    1.9848    0.0000 C   0  0
   -5.1187    3.6378    0.0000 C   0  0
   -4.4034    3.2287    0.0000 C   0  0
   -4.3999    2.3956    0.0000 C   0  0
   -3.6808    1.9843    0.0000 C   0  0
   -2.9604    2.4015    0.0000 N   0  0
   -2.9638    3.2346    0.0000 C   0  0
   -3.6876    3.6505    0.0000 C   0  0
   -3.6785    1.1593    0.0000 C   0  0
   -4.3904    0.7412    0.0000 N   0  0
   -2.9615    0.7450    0.0000 O   0  0
   -2.2448    1.9909    0.0000 S   0  0
   -1.5314    2.4054    0.0000 C   0  0
   -0.8158    1.9948    0.0000 C   0  0
   -2.9625    1.5833    0.0000 O   0  0
   -1.8375    1.2792    0.0000 O   0  0
   -4.3958   -0.0833    0.0000 O   0  0
  1  2  2  0
  2  3  1  0
  3  4  2  0
  4  5  1  0
  5  6  2  0
  6  1  1  0
  4  7  1  0
  7  8  2  0
  8  9  1  0
  9 10  2  0
 10 11  1  0
 11 12  2  0
 12  7  1  0
 10 13  1  0
 14 15  1  0
 15 16  1  0
 16 19  1  0
 18 17  1  0
 17 14  1  0
 18 19  1  0
 18 23  1  0
 19 20  1  0
 20 21  1  0
 21 22  1  0
 22 23  1  0
 20 24  1  0
 24 25  1  0
 24 26  2  0
 21 27  1  0
 27 28  1  0
 28 29  1  0
 29  1  1  0
 27 30  2  0
 27 31  2  0
 25 32  1  0
M  END
>  <ID_NEW>
CPDMM2106

>  <pIC50>
7.886056647693162

$$$$

  SciTegic12180812512D

 34 38  0  0  0  0            999 V2000
    5.1234    0.7699    0.0000 Cl  0  0
    4.3046    0.8711    0.0000 C   0  0
    3.9851    1.6329    0.0000 C   0  0
    3.1671    1.7344    0.0000 C   0  0
    2.6692    1.0756    0.0000 C   0  0
    2.9950    0.3130    0.0000 C   0  0
    3.8120    0.2151    0.0000 C   0  0
    1.8503    1.1757    0.0000 C   0  0
    1.5323    1.9370    0.0000 C   0  0
    0.7142    2.0375    0.0000 C   0  0
    0.2171    1.3779    0.0000 C   0  0
    0.5439    0.6158    0.0000 C   0  0
    1.3611    0.5190    0.0000 C   0  0
   -0.6019    1.4770    0.0000 S   0  0
   -5.5806    1.1875    0.0000 C   0  0
   -5.5818    0.3601    0.0000 C   0  0
   -4.8669   -0.0527    0.0000 C   0  0
   -4.1505    0.3606    0.0000 C   0  0
   -4.1534    1.1911    0.0000 C   0  0
   -4.8687    1.6003    0.0000 C   0  0
   -3.4417   -0.0500    0.0000 S   0  0
   -2.7417    1.0666    0.0000 C   0  0
   -2.7417    0.2416    0.0000 C   0  0
   -2.0296   -0.1667    0.0000 C   0  0
   -1.3176    0.2416    0.0000 C   0  0
   -1.3176    1.0666    0.0000 N   0  0
   -2.0296    1.4833    0.0000 C   0  0
   -2.0296    2.3083    0.0000 C   0  0
   -1.3171    2.7219    0.0000 N   0  0
   -2.7460    2.7219    0.0000 O   0  0
   -0.1958    2.1958    0.0000 O   0  0
   -1.3208    1.8917    0.0000 O   0  0
   -1.3250    3.5500    0.0000 O   0  0
   -2.0296   -0.9917    0.0000 O   0  0
  2  3  2  0
  3  4  1  0
  4  5  2  0
  5  6  1  0
  6  7  2  0
  7  2  1  0
  5  8  1  0
  8  9  2  0
  9 10  1  0
 10 11  2  0
 11 12  1  0
 12 13  2  0
 13  8  1  0
 11 14  1  0
 15 16  2  0
 16 17  1  0
 17 18  2  0
 18 19  1  0
 19 20  2  0
 20 15  1  0
 18 21  1  0
 22 23  2  0
 22 27  1  0
 23 24  1  0
 24 25  1  0
 25 26  1  0
 26 27  1  0
 19 22  1  0
 21 23  1  0
 27 28  1  0
 28 29  1  0
 28 30  2  0
 26 14  1  0
 14 31  2  0
 14 32  2  0
 29 33  1  0
 24 34  1  0
  1  2  1  0
M  END
>  <ID_NEW>
CPDMM2107

>  <pIC50>
7.886056647693162

$$$$

  SciTegic12180812542D

 34 38  0  0  0  0            999 V2000
   -2.2333    2.1750    0.0000 S   0  0
   -2.9417    2.5917    0.0000 N   0  0
   -3.6750    2.1875    0.0000 C   0  0
   -1.5167    1.7625    0.0000 C   0  0
   -3.6708    1.3667    0.0000 C   0  0
    3.4250    2.2875    0.0000 N   0  0
   -4.3917    2.6042    0.0000 C   0  0
    2.0833    2.1542    0.0000 C   0  0
    3.1083    3.0500    0.0000 C   0  0
    2.2625    2.9625    0.0000 C   0  0
   -2.9417    3.4333    0.0000 C   0  0
    2.8000    1.7333    0.0000 C   0  0
   -1.8125    2.8958    0.0000 O   0  0
   -2.6375    1.4708    0.0000 O   0  0
   -0.7958    0.5167    0.0000 N   0  0
   -0.0708    0.9208    0.0000 C   0  0
   -1.5167    0.9333    0.0000 C   0  0
   -4.3917    3.4208    0.0000 C   0  0
    1.3667    1.7458    0.0000 C   0  0
   -2.9417    0.9500    0.0000 O   0  0
    1.3667    0.9208    0.0000 C   0  0
    0.6417    0.5083    0.0000 O   0  0
   -0.8042    2.1750    0.0000 C   0  0
   -3.6708    3.8333    0.0000 C   0  0
   -4.3833    0.9500    0.0000 N   0  0
    2.7917    0.9083    0.0000 C   0  0
   -0.0750    1.7625    0.0000 C   0  0
    2.0792    0.5042    0.0000 C   0  0
   -4.3833    0.1333    0.0000 O   0  0
   -5.1000    2.1875    0.0000 C   0  0
    3.5167    3.7667    0.0000 C   0  0
   -5.1125    3.8333    0.0000 C   0  0
   -5.8208    2.6042    0.0000 C   0  0
   -5.8333    3.4333    0.0000 C   0  0
 34 32  1  0
 18  7  1  0
 15 16  2  0
 34 33  2  0
  8 12  2  0
  9  6  1  0
  2  1  1  0
  3  2  1  0
  4  1  1  0
  5  3  1  0
  6 12  1  0
  7  3  1  0
  8 19  1  0
  9 10  2  0
 10  8  1  0
 11  2  1  0
 12 26  1  0
 13  1  2  0
 14  1  2  0
 15 17  1  0
 16 27  1  0
 17  4  2  0
 18 24  1  0
 19 21  2  0
 20  5  2  0
 21 22  1  0
 22 16  1  0
 23  4  1  0
 24 11  1  0
 25  5  1  0
 26 28  2  0
 27 23  2  0
 28 21  1  0
 29 25  1  0
 30  7  2  0
 31  9  1  0
 32 18  2  0
 33 30  1  0
M  END
>  <ID_NEW>
CPDMM2108

>  <pIC50>
7.886056647693162

$$$$

  SciTegic12180812532D

 32 35  0  0  0  0            999 V2000
   -2.3277    2.1583    0.0000 C   0  0
   -2.9726    1.8869    0.0000 S   0  0
   -2.4192    1.4687    0.0000 O   0  0
   -3.3947    1.3361    0.0000 O   0  0
   -1.7772    1.7295    0.0000 C   0  0
   -1.1328    2.0002    0.0000 C   0  0
   -1.0428    2.6901    0.0000 C   0  0
   -1.6033    3.1123    0.0000 C   0  0
   -2.2409    2.8430    0.0000 C   0  0
   -5.8333    3.4041    0.0000 C   0  0
   -5.8333    2.7041    0.0000 C   0  0
   -5.2338    2.3625    0.0000 C   0  0
   -5.2338    3.7541    0.0000 C   0  0
   -4.6301    3.4041    0.0000 C   0  0
   -4.0886    3.8317    0.0000 C   0  0
   -3.4163    3.6754    0.0000 C   0  0
   -3.1140    3.0587    0.0000 C   0  0
   -4.6291    2.7041    0.0000 C   0  0
   -3.4139    2.4320    0.0000 N   0  0
   -4.0863    2.2736    0.0000 C   0  0
   -4.2389    1.5918    0.0000 C   0  0
   -4.9058    1.3886    0.0000 N   0  0
   -3.7287    1.1195    0.0000 O   0  0
   -0.4014    2.9596    0.0000 O   0  0
    0.1527    2.5389    0.0000 C   0  0
    0.0645    1.8502    0.0000 C   0  0
    0.6179    1.4296    0.0000 C   0  0
    1.2601    1.6990    0.0000 C   0  0
    1.3457    2.3931    0.0000 C   0  0
    0.7914    2.8107    0.0000 C   0  0
    1.8154    1.2786    0.0000 F   0  0
   -5.2583    0.7917    0.0000 O   0  0
  1  2  1  0
  2  3  2  0
  2  4  2  0
  1  5  2  0
  5  6  1  0
  6  7  2  0
  7  8  1  0
  8  9  2  0
  9  1  1  0
 10 11  1  0
 10 13  1  0
 11 12  1  0
 12 18  1  0
 14 13  1  0
 14 15  1  0
 15 16  1  0
 16 17  1  0
 14 18  1  0
 17 19  1  0
 18 20  1  0
 19 20  1  0
 21 22  1  0
 21 23  2  0
 20 21  1  0
 19  2  1  0
  7 24  1  0
 24 25  1  0
 25 26  2  0
 26 27  1  0
 27 28  2  0
 28 29  1  0
 29 30  2  0
 30 25  1  0
 28 31  1  0
 22 32  1  0
M  END
>  <ID_NEW>
CPDMM2109

>  <pIC50>
7.863089272518623

$$$$

  SciTegic12180812532D

 32 35  0  0  0  0            999 V2000
   -3.6925   -6.3660    0.0000 C   0  0
   -3.6836   -3.9390    0.0000 O   0  0
   -4.5731   -5.1497    0.0000 C   0  0
   -2.2587   -4.4071    0.0000 C   0  0
   -2.2706   -5.9071    0.0000 C   0  0
   -0.9745   -6.6613    0.0000 C   0  0
    0.3270   -5.9155    0.0000 N   0  0
    0.3318   -4.4155    0.0000 C   0  0
   -0.9648   -3.6613    0.0000 C   0  0
   -0.9793   -8.1613    0.0000 C   0  0
    0.3173   -8.9154    0.0000 N   0  0
   -2.2776   -8.9071    0.0000 O   0  0
    4.1353   -6.0053    0.0000 C   0  0
    2.6876   -5.6124    0.0000 C   0  0
    2.3041   -4.1623    0.0000 C   0  0
    3.3682   -3.1050    0.0000 C   0  0
    4.8158   -3.4979    0.0000 C   0  0
    5.1994   -4.9480    0.0000 C   0  0
    5.8799   -2.4407    0.0000 C   0  0
    5.4963   -0.9905    0.0000 C   0  0
    6.5604    0.0667    0.0000 C   0  0
    8.0080   -0.3262    0.0000 C   0  0
    8.3916   -1.7763    0.0000 C   0  0
    7.3275   -2.8336    0.0000 C   0  0
    9.0721    0.7311    0.0000 C   0  0
    1.6236   -6.6696    0.0000 S   0  0
    0.7593   -7.8956    0.0000 O   0  0
    2.7695   -7.6375    0.0000 O   0  0
   10.3687   -0.0231    0.0000 F   0  0
    9.9364    1.9570    0.0000 F   0  0
    7.9261    1.6989    0.0000 F   0  0
    0.3125  -10.4083    0.0000 O   0  0
  6 10  1  0
 10 11  1  0
 10 12  2  0
  1  5  1  0
  4  2  1  0
  2  3  1  0
  3  1  1  0
  4  9  1  0
  5  6  1  0
  6  7  1  0
  7  8  1  0
  8  9  1  0
  4  5  1  0
 21 22  2  0
 14 15  1  0
 22 23  1  0
 17 18  2  0
 23 24  2  0
 24 19  1  0
 18 13  1  0
 13 14  2  0
 22 25  1  0
 17 19  1  0
 14 26  1  0
 15 16  2  0
 19 20  2  0
 26 27  2  0
 26 28  2  0
 20 21  1  0
 16 17  1  0
 25 29  1  0
 25 30  1  0
 25 31  1  0
  7 26  1  0
 11 32  1  0
M  END
>  <ID_NEW>
CPDMM2110

>  <pIC50>
7.854523895115039

$$$$

  SciTegic12180812542D

 33 36  0  0  0  0            999 V2000
    1.3777   -4.3791    0.0000 C   0  0
    1.3766   -5.2065    0.0000 C   0  0
    2.0914   -5.6194    0.0000 C   0  0
    2.0896   -3.9664    0.0000 C   0  0
    2.8050   -4.3755    0.0000 C   0  0
    2.8038   -5.2040    0.0000 C   0  0
    3.5168   -5.6169    0.0000 C   0  0
    4.2354   -5.2060    0.0000 N   0  0
    4.2366   -4.3775    0.0000 C   0  0
    3.5191   -3.9600    0.0000 C   0  0
    2.0871   -3.1414    0.0000 F   0  0
    2.0931   -6.4444    0.0000 O   0  0
    1.3750   -6.8500    0.0000 C   0  0
    3.5144   -6.4419    0.0000 C   0  0
    2.7988   -6.8524    0.0000 N   0  0
    4.2278   -6.8564    0.0000 O   0  0
    2.7917   -7.6750    0.0000 O   0  0
    4.9487   -5.6205    0.0000 S   0  0
    5.5292   -5.0292    0.0000 O   0  0
    4.3583   -6.2000    0.0000 O   0  0
    5.6595   -6.0394    0.0000 C   0  0
    5.6482   -6.8635    0.0000 C   0  0
    6.3581   -7.2823    0.0000 C   0  0
    7.0772   -6.8762    0.0000 C   0  0
    7.0820   -6.0470    0.0000 C   0  0
    6.3715   -5.6319    0.0000 C   0  0
    7.7861   -7.2916    0.0000 C   0  0
    7.7784   -8.1177    0.0000 C   0  0
    8.4889   -8.5356    0.0000 C   0  0
    9.2075   -8.1285    0.0000 C   0  0
    9.2112   -7.2992    0.0000 C   0  0
    8.5001   -6.8851    0.0000 C   0  0
    9.9193   -8.5455    0.0000 Cl  0  0
 14 16  2  0
  4  1  1  0
 15 17  1  0
  5 10  1  0
  8 18  1  0
  6  7  1  0
 18 19  2  0
  7  8  1  0
 18 20  2  0
  8  9  1  0
 18 21  1  0
  9 10  1  0
 21 22  2  0
  5  6  1  0
 22 23  1  0
  4 11  1  0
 23 24  2  0
 24 25  1  0
  3 12  1  0
 25 26  2  0
 26 21  1  0
  2  3  1  0
 12 13  1  0
 27 28  2  0
  3  6  2  0
 28 29  1  0
  7 14  1  0
 29 30  2  0
  1  2  2  0
 30 31  1  0
 14 15  1  0
 31 32  2  0
 32 27  1  0
 24 27  1  0
  5  4  2  0
 30 33  1  0
M  END
>  <ID_NEW>
CPDMM2111

>  <pIC50>
7.853871964321761

$$$$

  -MTS-   10172316422D 0   0.00000     0.00000     0

 30 34  0  0  1  0  0  0  0  0999 V2000
   -1.1220    0.0430    0.0000 S   0  0  0  0  0  0  0  0  0  0  0  0
   -0.5950    0.3480    0.0000 C   0  0  0  0  0  0  0  0  0  0  0  0
   -0.0620    0.0390    0.0000 C   0  0  0  0  0  0  0  0  0  0  0  0
   -0.0670    1.2680    0.0000 C   0  0  0  0  0  0  0  0  0  0  0  0
   -0.5940    0.9580    0.0000 C   0  0  0  0  0  0  0  0  0  0  0  0
   -1.5640   -0.3940    0.0000 O   0  0  0  0  0  0  0  0  0  0  0  0
   -0.8220   -0.4900    0.0000 O   0  0  0  0  0  0  0  0  0  0  0  0
   -3.7830    0.9620    0.0000 C   0  0  0  0  0  0  0  0  0  0  0  0
   -3.7830    0.3460    0.0000 C   0  0  0  0  0  0  0  0  0  0  0  0
   -3.2500    0.0420    0.0000 C   0  0  0  0  0  0  0  0  0  0  0  0
   -3.2500    1.2750    0.0000 C   0  0  0  0  0  0  0  0  0  0  0  0
   -2.7220    0.9620    0.0000 C   0  0  0  0  0  0  0  0  0  0  0  0
   -2.7210    0.3460    0.0000 C   0  0  0  0  0  0  0  0  0  0  0  0
   -2.1890    0.0450    0.0000 C   0  0  1  0  0  0  0  0  0  0  0  0
   -1.6580    0.3480    0.0000 N   0  0  0  0  0  0  0  0  0  0  0  0
   -1.6590    0.9640    0.0000 C   0  0  0  0  0  0  0  0  0  0  0  0
   -2.1910    1.2740    0.0000 C   0  0  0  0  0  0  0  0  0  0  0  0
   -2.1890   -0.5760    0.0000 C   0  0  0  0  0  0  0  0  0  0  0  0
   -1.6570   -0.8860    0.0000 O   0  0  0  0  0  0  0  0  0  0  0  0
    0.4720    0.9620    0.0000 C   0  0  0  0  0  0  0  0  0  0  0  0
    0.4720    0.3440    0.0000 C   0  0  0  0  0  0  0  0  0  0  0  0
    1.0590    1.1530    0.0000 O   0  0  0  0  0  0  0  0  0  0  0  0
    1.4230    0.6540    0.0000 C   0  0  0  0  0  0  0  0  0  0  0  0
    1.0580    0.1570    0.0000 C   0  0  0  0  0  0  0  0  0  0  0  0
    1.3070   -0.4050    0.0000 C   0  0  0  0  0  0  0  0  0  0  0  0
    1.9190   -0.4720    0.0000 C   0  0  0  0  0  0  0  0  0  0  0  0
    2.2830    0.0290    0.0000 C   0  0  0  0  0  0  0  0  0  0  0  0
    2.0320    0.5890    0.0000 C   0  0  0  0  0  0  0  0  0  0  0  0
   -2.7270   -0.8850    0.0000 N   0  0  0  0  0  0  0  0  0  0  0  0
   -2.7280   -1.5060    0.0000 O   0  0  0  0  0  0  0  0  0  0  0  0
  1  2  1  0  0  0  0
  2  3  2  0  0  0  0
  3 21  1  0  0  0  0
 20  4  1  0  0  0  0
  4  5  2  0  0  0  0
  5  2  1  0  0  0  0
  1  6  2  0  0  0  0
  1  7  2  0  0  0  0
  8  9  2  0  0  0  0
  8 11  1  0  0  0  0
  9 10  1  0  0  0  0
 10 13  2  0  0  0  0
 12 11  2  0  0  0  0
 12 13  1  0  0  0  0
 12 17  1  0  0  0  0
 13 14  1  0  0  0  0
 14 15  1  0  0  0  0
 15 16  1  0  0  0  0
 16 17  1  0  0  0  0
 14 18  1  1  0  0  0
 18 19  2  0  0  0  0
 15  1  1  0  0  0  0
 20 21  2  0  0  0  0
 21 24  1  0  0  0  0
 23 22  1  0  0  0  0
 22 20  1  0  0  0  0
 23 24  2  0  0  0  0
 24 25  1  0  0  0  0
 25 26  2  0  0  0  0
 26 27  1  0  0  0  0
 27 28  2  0  0  0  0
 28 23  1  0  0  0  0
 18 29  1  0  0  0  0
 29 30  1  0  0  0  0
M  END
>  <ID_NEW>
CPDMM2112

>  <pIC50>
7.853871964321761

$$$$

  -MTS-   10172316422D 0   0.00000     0.00000     0

 36 39  0  0  0  0  0  0  0  0999 V2000
   -6.0290    1.8080    0.0000 S   0  0  0  0  0  0  0  0  0  0  0  0
   -6.7620    1.8120    0.0000 N   0  0  0  0  0  0  0  0  0  0  0  0
   -7.1370    1.1960    0.0000 C   0  0  1  0  0  0  0  0  0  0  0  0
   -1.5830   -0.7670    0.0000 S   0  0  0  0  0  0  0  0  0  0  0  0
   -6.7790    0.5620    0.0000 C   0  0  0  0  0  0  0  0  0  0  0  0
   -7.8670    1.2000    0.0000 C   0  0  2  0  0  0  0  0  0  0  0  0
   -7.1170    2.4580    0.0000 C   0  0  0  0  0  0  0  0  0  0  0  0
   -5.2960    1.8080    0.0000 C   0  0  0  0  0  0  0  0  0  0  0  0
   -6.0170    2.5460    0.0000 O   0  0  0  0  0  0  0  0  0  0  0  0
   -6.0290    1.0750    0.0000 O   0  0  0  0  0  0  0  0  0  0  0  0
   -1.9580   -0.1250    0.0000 C   0  0  0  0  0  0  0  0  0  0  0  0
   -0.9330   -0.4000    0.0000 O   0  0  0  0  0  0  0  0  0  0  0  0
   -2.2330   -1.1500    0.0000 O   0  0  0  0  0  0  0  0  0  0  0  0
   -6.0540    0.5500    0.0000 O   0  0  0  0  0  0  0  0  0  0  0  0
   -8.2210    1.8330    0.0000 C   0  0  2  0  0  0  0  0  0  0  0  0
   -7.1500   -0.0750    0.0000 N   0  0  0  0  0  0  0  0  0  0  0  0
   -7.8460    2.4620    0.0000 C   0  0  0  0  0  0  0  0  0  0  0  0
   -4.9120    2.4540    0.0000 C   0  0  0  0  0  0  0  0  0  0  0  0
   -4.9250    1.1710    0.0000 C   0  0  0  0  0  0  0  0  0  0  0  0
   -3.0580    1.7960    0.0000 O   0  0  0  0  0  0  0  0  0  0  0  0
   -2.7080   -0.1170    0.0000 C   0  0  0  0  0  0  0  0  0  0  0  0
   -1.5960    0.5120    0.0000 C   0  0  0  0  0  0  0  0  0  0  0  0
   -2.6960    1.1580    0.0000 C   0  0  0  0  0  0  0  0  0  0  0  0
   -3.8080    1.8080    0.0000 C   0  0  0  0  0  0  0  0  0  0  0  0
   -1.2080   -1.4250    0.0000 C   0  0  0  0  0  0  0  0  0  0  0  0
   -4.1750    1.1710    0.0000 C   0  0  0  0  0  0  0  0  0  0  0  0
   -4.1620    2.4460    0.0000 C   0  0  0  0  0  0  0  0  0  0  0  0
   -3.0710    0.5210    0.0000 C   0  0  0  0  0  0  0  0  0  0  0  0
   -1.9460    1.1500    0.0000 C   0  0  0  0  0  0  0  0  0  0  0  0
   -6.7750   -0.6920    0.0000 O   0  0  0  0  0  0  0  0  0  0  0  0
   -8.2420    0.5620    0.0000 C   0  0  0  0  0  0  0  0  0  0  0  0
   -8.9670    1.8330    0.0000 C   0  0  0  0  0  0  0  0  0  0  0  0
   -8.9790    0.5830    0.0000 C   0  0  0  0  0  0  0  0  0  0  0  0
   -9.3540    1.2210    0.0000 C   0  0  0  0  0  0  0  0  0  0  0  0
   -8.7150    2.7030    0.0000 H   0  0  0  0  0  0  0  0  0  0  0  0
   -7.3730    0.3300    0.0000 H   0  0  0  0  0  0  0  0  0  0  0  0
  2  1  1  0  0  0  0
  3  2  1  0  0  0  0
  4 11  1  0  0  0  0
  3  5  1  1  0  0  0
  6  3  1  0  0  0  0
  7  2  1  0  0  0  0
  8  1  1  0  0  0  0
  9  1  2  0  0  0  0
 10  1  2  0  0  0  0
 11 22  1  0  0  0  0
 12  4  2  0  0  0  0
 13  4  2  0  0  0  0
 14  5  2  0  0  0  0
 15 17  1  0  0  0  0
 16  5  1  0  0  0  0
 17  7  1  0  0  0  0
 18  8  1  0  0  0  0
 19  8  2  0  0  0  0
 20 24  1  0  0  0  0
 21 28  1  0  0  0  0
 22 29  2  0  0  0  0
 23 20  1  0  0  0  0
 24 27  1  0  0  0  0
 25  4  1  0  0  0  0
 26 19  1  0  0  0  0
 27 18  2  0  0  0  0
 28 23  2  0  0  0  0
 29 23  1  0  0  0  0
 30 16  1  0  0  0  0
 31  6  1  0  0  0  0
 32 15  1  0  0  0  0
 33 31  1  0  0  0  0
 34 32  1  0  0  0  0
 24 26  2  0  0  0  0
  6 15  1  0  0  0  0
 34 33  1  0  0  0  0
 11 21  2  0  0  0  0
 15 35  1  6  0  0  0
  6 36  1  6  0  0  0
V    3 M1
V    6 M1
V   15 M1
M  END
>  <ID_NEW>
CPDMM2113

>  <pIC50>
7.853871964321761

$$$$

  -MTS-   10172316422D 0   0.00000     0.00000     0

 33 36  0  0  1  0  0  0  0  0999 V2000
   -5.9870    1.7960    0.0000 S   0  0  0  0  0  0  0  0  0  0  0  0
   -6.7170    1.7870    0.0000 N   0  0  0  0  0  0  0  0  0  0  0  0
   -7.0920    1.1460    0.0000 C   0  0  1  0  0  0  0  0  0  0  0  0
   -6.7120    0.5080    0.0000 C   0  0  0  0  0  0  0  0  0  0  0  0
   -0.7960    1.9080    0.0000 C   0  0  0  0  0  0  0  0  0  0  0  0
   -7.8290    1.1460    0.0000 C   0  0  0  0  0  0  0  0  0  0  0  0
   -7.0870    2.4250    0.0000 C   0  0  0  0  0  0  0  0  0  0  0  0
   -5.2460    1.8000    0.0000 C   0  0  0  0  0  0  0  0  0  0  0  0
   -5.9750    1.0620    0.0000 O   0  0  0  0  0  0  0  0  0  0  0  0
   -5.9960    2.5460    0.0000 O   0  0  0  0  0  0  0  0  0  0  0  0
   -1.5460    1.8920    0.0000 C   0  0  0  0  0  0  0  0  0  0  0  0
   -8.2040    1.7710    0.0000 C   0  0  0  0  0  0  0  0  0  0  0  0
   -5.9830    0.5120    0.0000 O   0  0  0  0  0  0  0  0  0  0  0  0
   -3.0250    1.8580    0.0000 C   0  0  0  0  0  0  0  0  0  0  0  0
   -3.7710    1.8460    0.0000 C   0  0  0  0  0  0  0  0  0  0  0  0
   -7.8420    2.4210    0.0000 C   0  0  0  0  0  0  0  0  0  0  0  0
   -7.0790   -0.1250    0.0000 N   0  0  0  0  0  0  0  0  0  0  0  0
   -4.8620    1.1830    0.0000 C   0  0  0  0  0  0  0  0  0  0  0  0
   -4.8920    2.4620    0.0000 C   0  0  0  0  0  0  0  0  0  0  0  0
   -1.9040    1.2500    0.0000 C   0  0  0  0  0  0  0  0  0  0  0  0
   -1.9460    2.5370    0.0000 C   0  0  0  0  0  0  0  0  0  0  0  0
   -0.2960    1.3370    0.0000 F   0  0  0  0  0  0  0  0  0  0  0  0
   -0.3330    2.5330    0.0000 F   0  0  0  0  0  0  0  0  0  0  0  0
   -0.1210    1.9460    0.0000 F   0  0  0  0  0  0  0  0  0  0  0  0
   -4.1540    2.4750    0.0000 C   0  0  0  0  0  0  0  0  0  0  0  0
   -4.1120    1.1960    0.0000 C   0  0  0  0  0  0  0  0  0  0  0  0
   -2.6370    1.2330    0.0000 C   0  0  0  0  0  0  0  0  0  0  0  0
   -2.6830    2.5210    0.0000 C   0  0  0  0  0  0  0  0  0  0  0  0
   -6.7120   -0.7540    0.0000 O   0  0  0  0  0  0  0  0  0  0  0  0
   -8.1920    0.5080    0.0000 C   0  0  0  0  0  0  0  0  0  0  0  0
   -8.9460    1.7580    0.0000 C   0  0  0  0  0  0  0  0  0  0  0  0
   -8.9170    0.5000    0.0000 C   0  0  0  0  0  0  0  0  0  0  0  0
   -9.3000    1.1330    0.0000 C   0  0  0  0  0  0  0  0  0  0  0  0
  2  1  1  0  0  0  0
  3  2  1  0  0  0  0
  3  4  1  1  0  0  0
  5 11  1  0  0  0  0
  6  3  1  0  0  0  0
  7  2  1  0  0  0  0
  8  1  1  0  0  0  0
  9  1  2  0  0  0  0
 10  1  2  0  0  0  0
 11 20  2  0  0  0  0
 12 16  1  0  0  0  0
 13  4  2  0  0  0  0
 14 15  1  0  0  0  0
 15 26  2  0  0  0  0
 16  7  1  0  0  0  0
 17  4  1  0  0  0  0
 18  8  2  0  0  0  0
 19  8  1  0  0  0  0
 20 27  1  0  0  0  0
 21 28  2  0  0  0  0
 22  5  1  0  0  0  0
 23  5  1  0  0  0  0
 24  5  1  0  0  0  0
 25 19  2  0  0  0  0
 26 18  1  0  0  0  0
 27 14  2  0  0  0  0
 28 14  1  0  0  0  0
 29 17  1  0  0  0  0
 30  6  2  0  0  0  0
 31 12  2  0  0  0  0
 32 30  1  0  0  0  0
 33 31  1  0  0  0  0
 25 15  1  0  0  0  0
 12  6  1  0  0  0  0
 33 32  2  0  0  0  0
 21 11  1  0  0  0  0
M  END
>  <ID_NEW>
CPDMM2114

>  <pIC50>
7.853871964321761

$$$$

  SciTegic12180813012D

 33 36  0  0  0  0            999 V2000
   -5.9958    1.7958    0.0000 S   0  0
   -6.7292    1.7958    0.0000 N   0  0
   -7.1042    1.1625    0.0000 C   0  0
   -7.8417    1.1583    0.0000 C   0  0
   -6.7292    0.5125    0.0000 C   0  0
   -8.2167    1.7958    0.0000 C   0  0
   -7.0958    2.4333    0.0000 C   0  0
   -5.2667    1.8000    0.0000 C   0  0
   -0.0583    1.8083    0.0000 N   0  0
   -6.0000    1.0625    0.0000 O   0  0
   -5.9958    2.5375    0.0000 O   0  0
   -8.2042    0.5125    0.0000 C   0  0
   -0.7958    1.8083    0.0000 C   0  0
   -7.8417    2.4333    0.0000 C   0  0
   -5.9958    0.5250    0.0000 O   0  0
   -3.7708    1.8000    0.0000 C   0  0
   -8.9542    1.7958    0.0000 C   0  0
   -3.0208    1.8000    0.0000 C   0  0
   -7.0917   -0.1125    0.0000 N   0  0
   -4.8917    1.1708    0.0000 C   0  0
   -4.8958    2.4333    0.0000 C   0  0
   -4.1417    1.1708    0.0000 C   0  0
   -4.1458    2.4458    0.0000 C   0  0
   -2.6583    2.4458    0.0000 C   0  0
   -2.6500    1.1708    0.0000 C   0  0
   -1.5333    1.8083    0.0000 C   0  0
   -9.3167    1.1583    0.0000 C   0  0
   -8.9417    0.5125    0.0000 C   0  0
   -1.9083    2.4458    0.0000 C   0  0
   -1.9125    1.1708    0.0000 C   0  0
   -6.7333   -0.7542    0.0000 O   0  0
  -10.0542    1.1500    0.0000 O   0  0
  -10.4125    0.5083    0.0000 C   0  0
  2  1  1  0
  3  2  1  0
  4  3  1  0
  5  3  1  0
  6 14  1  0
  7  2  1  0
  8  1  1  0
  9 13  3  0
 10  1  2  0
 11  1  2  0
 12  4  2  0
 13 26  1  0
 14  7  1  0
 15  5  2  0
 16 22  2  0
 17  6  2  0
 18 16  1  0
 19  5  1  0
 20  8  2  0
 21  8  1  0
 22 20  1  0
 23 21  2  0
 24 18  1  0
 25 18  2  0
 26 29  1  0
 27 17  1  0
 28 12  1  0
 29 24  2  0
 30 25  1  0
 31 19  1  0
 32 27  1  0
 33 32  1  0
 23 16  1  0
  6  4  1  0
 27 28  2  0
 26 30  2  0
M  END
>  <ID_NEW>
CPDMM2115

>  <pIC50>
7.853871964321761

$$$$

  -MTS-   10172316422D 0   0.00000     0.00000     0

 31 34  0  0  1  0  0  0  0  0999 V2000
   -2.9330    2.1500    0.0000 N   0  0  0  0  0  0  0  0  0  0  0  0
   -5.8310    3.3000    0.0000 C   0  0  0  0  0  0  0  0  0  0  0  0
   -5.8320    2.4730    0.0000 C   0  0  0  0  0  0  0  0  0  0  0  0
   -5.1170    2.0600    0.0000 C   0  0  0  0  0  0  0  0  0  0  0  0
   -5.1190    3.7130    0.0000 C   0  0  0  0  0  0  0  0  0  0  0  0
   -4.3980    2.4760    0.0000 C   0  0  0  0  0  0  0  0  0  0  0  0
   -4.4030    3.3040    0.0000 C   0  0  0  0  0  0  0  0  0  0  0  0
   -3.7560    3.8300    0.0000 C   0  0  0  0  0  0  0  0  0  0  0  0
   -3.7420    1.9610    0.0000 C   0  0  2  0  0  0  0  0  0  0  0  0
   -2.9440    3.6550    0.0000 C   0  0  0  0  0  0  0  0  0  0  0  0
   -2.5790    2.9090    0.0000 C   0  0  0  0  0  0  0  0  0  0  0  0
   -3.9200    1.1560    0.0000 C   0  0  0  0  0  0  0  0  0  0  0  0
   -4.7070    0.9070    0.0000 N   0  0  0  0  0  0  0  0  0  0  0  0
   -3.3120    0.5980    0.0000 O   0  0  0  0  0  0  0  0  0  0  0  0
   -4.8850    0.1010    0.0000 O   0  0  0  0  0  0  0  0  0  0  0  0
   -2.4130    1.5100    0.0000 S   0  0  0  0  0  0  0  0  0  0  0  0
   -1.6210    1.7290    0.0000 C   0  0  0  0  0  0  0  0  0  0  0  0
   -3.2170    1.3000    0.0000 O   0  0  0  0  0  0  0  0  0  0  0  0
   -2.4210    0.6870    0.0000 O   0  0  0  0  0  0  0  0  0  0  0  0
   -1.0360    1.1500    0.0000 C   0  0  0  0  0  0  0  0  0  0  0  0
   -0.2450    1.3690    0.0000 C   0  0  0  0  0  0  0  0  0  0  0  0
   -0.0380    2.1650    0.0000 C   0  0  0  0  0  0  0  0  0  0  0  0
   -0.6290    2.7430    0.0000 C   0  0  0  0  0  0  0  0  0  0  0  0
   -1.4180    2.5210    0.0000 C   0  0  0  0  0  0  0  0  0  0  0  0
    0.7570    2.3860    0.0000 C   0  0  0  0  0  0  0  0  0  0  0  0
    1.3450    1.8080    0.0000 C   0  0  0  0  0  0  0  0  0  0  0  0
    2.1390    2.0280    0.0000 C   0  0  0  0  0  0  0  0  0  0  0  0
    2.3450    2.8280    0.0000 C   0  0  0  0  0  0  0  0  0  0  0  0
    1.7520    3.4070    0.0000 C   0  0  0  0  0  0  0  0  0  0  0  0
    0.9600    3.1830    0.0000 C   0  0  0  0  0  0  0  0  0  0  0  0
    3.1400    3.0500    0.0000 Cl  0  0  0  0  0  0  0  0  0  0  0  0
  1 11  1  0  0  0  0
  9 12  1  1  0  0  0
 12 13  1  0  0  0  0
 12 14  2  0  0  0  0
 13 15  1  0  0  0  0
  1 16  1  0  0  0  0
 16 17  1  0  0  0  0
 16 18  2  0  0  0  0
 16 19  2  0  0  0  0
 17 20  2  0  0  0  0
 20 21  1  0  0  0  0
 21 22  2  0  0  0  0
 22 23  1  0  0  0  0
 23 24  2  0  0  0  0
 24 17  1  0  0  0  0
 22 25  1  0  0  0  0
 25 26  2  0  0  0  0
 26 27  1  0  0  0  0
 27 28  2  0  0  0  0
 28 29  1  0  0  0  0
 29 30  2  0  0  0  0
 30 25  1  0  0  0  0
 28 31  1  0  0  0  0
  2  3  2  0  0  0  0
  3  4  1  0  0  0  0
  4  6  2  0  0  0  0
  7  5  2  0  0  0  0
  5  2  1  0  0  0  0
  6  7  1  0  0  0  0
  7  8  1  0  0  0  0
  6  9  1  0  0  0  0
  8 10  1  0  0  0  0
  9  1  1  0  0  0  0
 10 11  1  0  0  0  0
M  END
>  <ID_NEW>
CPDMM2116

>  <pIC50>
7.849796371237191

$$$$

  SciTegic12180813002D

 33 36  0  0  0  0            999 V2000
   -2.3222    2.1583    0.0000 C   0  0
   -2.9690    1.8869    0.0000 S   0  0
   -2.4141    1.4687    0.0000 O   0  0
   -3.3886    1.3361    0.0000 O   0  0
   -1.7727    1.7295    0.0000 C   0  0
   -1.1255    2.0002    0.0000 C   0  0
   -1.0405    2.6901    0.0000 C   0  0
   -1.5966    3.1123    0.0000 C   0  0
   -2.2340    2.8430    0.0000 C   0  0
   -5.8333    3.4041    0.0000 C   0  0
   -5.8333    2.7041    0.0000 C   0  0
   -5.2328    2.3625    0.0000 C   0  0
   -5.2328    3.7541    0.0000 C   0  0
   -4.6282    3.4041    0.0000 C   0  0
   -4.0863    3.8317    0.0000 C   0  0
   -3.4086    3.6754    0.0000 C   0  0
   -3.1109    3.0587    0.0000 C   0  0
   -4.6208    2.7041    0.0000 C   0  0
   -3.4110    2.4320    0.0000 N   0  0
   -4.0803    2.2736    0.0000 C   0  0
   -4.2360    1.5918    0.0000 C   0  0
   -4.9025    1.3886    0.0000 N   0  0
   -3.7212    1.1195    0.0000 O   0  0
   -0.3985    2.9596    0.0000 O   0  0
    0.1557    2.5389    0.0000 C   0  0
    0.0689    1.8502    0.0000 C   0  0
    0.6238    1.4296    0.0000 C   0  0
    1.2650    1.6990    0.0000 C   0  0
    1.3460    2.3931    0.0000 C   0  0
    0.7920    2.8107    0.0000 C   0  0
   -5.2500    0.7917    0.0000 O   0  0
    1.8221    1.2828    0.0000 C   0  0
    2.3780    0.8649    0.0000 N   0  0
 27 28  2  0
 28 29  1  0
 29 30  2  0
 30 25  1  0
 22 31  1  0
  1  2  1  0
  2  3  2  0
  2  4  2  0
  1  5  2  0
  5  6  1  0
  6  7  2  0
  7  8  1  0
  8  9  2  0
  9  1  1  0
 10 11  1  0
 10 13  1  0
 11 12  1  0
 12 18  1  0
 14 13  1  0
 14 15  1  0
 15 16  1  0
 16 17  1  0
 14 18  1  0
 17 19  1  0
 18 20  1  0
 19 20  1  0
 21 22  1  0
 21 23  2  0
 20 21  1  0
 19  2  1  0
  7 24  1  0
 24 25  1  0
 25 26  2  0
 26 27  1  0
 32 33  3  0
 28 32  1  0
M  END
>  <ID_NEW>
CPDMM2117

>  <pIC50>
7.847864603138123

$$$$

  -MTS-   10172316422D 0   0.00000     0.00000     0

 32 35  0  0  1  0  0  0  0  0999 V2000
   -4.3250    0.7970    0.0000 C   0  0  0  0  0  0  0  0  0  0  0  0
   -5.1110    0.5490    0.0000 N   0  0  0  0  0  0  0  0  0  0  0  0
   -3.7160    0.2400    0.0000 O   0  0  0  0  0  0  0  0  0  0  0  0
   -5.2890   -0.2570    0.0000 O   0  0  0  0  0  0  0  0  0  0  0  0
   -2.8170    1.1510    0.0000 S   0  0  0  0  0  0  0  0  0  0  0  0
   -2.0250    1.3710    0.0000 C   0  0  0  0  0  0  0  0  0  0  0  0
   -3.6210    0.9420    0.0000 O   0  0  0  0  0  0  0  0  0  0  0  0
   -2.8250    0.3290    0.0000 O   0  0  0  0  0  0  0  0  0  0  0  0
   -1.4400    0.7920    0.0000 C   0  0  0  0  0  0  0  0  0  0  0  0
   -0.6490    1.0100    0.0000 C   0  0  0  0  0  0  0  0  0  0  0  0
   -0.4420    1.8070    0.0000 C   0  0  0  0  0  0  0  0  0  0  0  0
   -1.0330    2.3840    0.0000 C   0  0  0  0  0  0  0  0  0  0  0  0
   -1.8220    2.1620    0.0000 C   0  0  0  0  0  0  0  0  0  0  0  0
    0.3530    2.0280    0.0000 O   0  0  0  0  0  0  0  0  0  0  0  0
    0.9420    1.4500    0.0000 C   0  0  0  0  0  0  0  0  0  0  0  0
    0.7340    0.6550    0.0000 C   0  0  0  0  0  0  0  0  0  0  0  0
    1.3220    0.0770    0.0000 C   0  0  0  0  0  0  0  0  0  0  0  0
    2.1180    0.2980    0.0000 C   0  0  0  0  0  0  0  0  0  0  0  0
    2.3220    1.1020    0.0000 C   0  0  0  0  0  0  0  0  0  0  0  0
    1.7320    1.6760    0.0000 C   0  0  0  0  0  0  0  0  0  0  0  0
    2.7070   -0.2790    0.0000 Cl  0  0  0  0  0  0  0  0  0  0  0  0
   -4.1470    1.5990    0.0000 C   0  0  2  0  0  0  0  0  0  0  0  0
   -3.3370    1.7920    0.0000 N   0  0  0  0  0  0  0  0  0  0  0  0
   -3.1010    2.5860    0.0000 C   0  0  0  0  0  0  0  0  0  0  0  0
   -3.6710    3.1910    0.0000 C   0  0  0  0  0  0  0  0  0  0  0  0
   -4.7210    2.1990    0.0000 C   0  0  2  0  0  0  0  0  0  0  0  0
   -4.4840    2.9960    0.0000 C   0  0  1  0  0  0  0  0  0  0  0  0
   -5.1690    3.4680    0.0000 O   0  0  0  0  0  0  0  0  0  0  0  0
   -5.8300    2.9620    0.0000 C   0  0  0  0  0  0  0  0  0  0  0  0
   -5.5530    2.1780    0.0000 C   0  0  0  0  0  0  0  0  0  0  0  0
   -4.3010    3.9800    0.0000 H   0  0  0  0  0  0  0  0  0  0  0  0
   -5.1020    1.2740    0.0000 H   0  0  0  0  0  0  0  0  0  0  0  0
  2  4  1  0  0  0  0
 23  5  1  0  0  0  0
  5  6  1  0  0  0  0
  5  7  2  0  0  0  0
  5  8  2  0  0  0  0
  6  9  2  0  0  0  0
  9 10  1  0  0  0  0
 10 11  2  0  0  0  0
 11 12  1  0  0  0  0
 12 13  2  0  0  0  0
 13  6  1  0  0  0  0
 11 14  1  0  0  0  0
 14 15  1  0  0  0  0
 15 16  2  0  0  0  0
 16 17  1  0  0  0  0
 17 18  2  0  0  0  0
 18 19  1  0  0  0  0
 19 20  2  0  0  0  0
 20 15  1  0  0  0  0
 18 21  1  0  0  0  0
 22 23  1  0  0  0  0
 22 26  1  0  0  0  0
 23 24  1  0  0  0  0
 24 25  1  0  0  0  0
 25 27  1  0  0  0  0
 26 27  1  0  0  0  0
 27 28  1  0  0  0  0
 28 29  1  0  0  0  0
 29 30  1  0  0  0  0
 30 26  1  0  0  0  0
 22  1  1  1  0  0  0
  1  2  1  0  0  0  0
  1  3  2  0  0  0  0
 27 31  1  6  0  0  0
 26 32  1  6  0  0  0
M  END
>  <ID_NEW>
CPDMM2118

>  <pIC50>
7.8466113092159935

$$$$

  -MTS-   10172316422D 0   0.00000     0.00000     0

 35 38  0  0  1  0  0  0  0  0999 V2000
   -2.9330    1.8210    0.0000 N   0  0  0  0  0  0  0  0  0  0  0  0
   -5.8310    2.9710    0.0000 C   0  0  0  0  0  0  0  0  0  0  0  0
   -5.8320    2.1430    0.0000 C   0  0  0  0  0  0  0  0  0  0  0  0
   -5.1170    1.7310    0.0000 C   0  0  0  0  0  0  0  0  0  0  0  0
   -5.1190    3.3840    0.0000 C   0  0  0  0  0  0  0  0  0  0  0  0
   -4.3980    2.1460    0.0000 C   0  0  2  0  0  0  0  0  0  0  0  0
   -4.4030    2.9740    0.0000 C   0  0  1  0  0  0  0  0  0  0  0  0
   -3.7560    3.5000    0.0000 C   0  0  0  0  0  0  0  0  0  0  0  0
   -3.7420    1.6320    0.0000 C   0  0  1  0  0  0  0  0  0  0  0  0
   -2.9440    3.3260    0.0000 C   0  0  0  0  0  0  0  0  0  0  0  0
   -2.5790    2.5800    0.0000 C   0  0  0  0  0  0  0  0  0  0  0  0
   -3.9200    0.8260    0.0000 C   0  0  0  0  0  0  0  0  0  0  0  0
   -4.7070    0.5780    0.0000 N   0  0  0  0  0  0  0  0  0  0  0  0
   -3.3120    0.2690    0.0000 O   0  0  0  0  0  0  0  0  0  0  0  0
   -4.8850   -0.2280    0.0000 O   0  0  0  0  0  0  0  0  0  0  0  0
   -2.4130    1.1810    0.0000 S   0  0  0  0  0  0  0  0  0  0  0  0
   -1.6210    1.4000    0.0000 C   0  0  0  0  0  0  0  0  0  0  0  0
   -3.2170    0.9710    0.0000 O   0  0  0  0  0  0  0  0  0  0  0  0
   -2.4210    0.3580    0.0000 O   0  0  0  0  0  0  0  0  0  0  0  0
   -1.0360    0.8210    0.0000 C   0  0  0  0  0  0  0  0  0  0  0  0
   -0.2450    1.0400    0.0000 C   0  0  0  0  0  0  0  0  0  0  0  0
   -0.0380    1.8360    0.0000 C   0  0  0  0  0  0  0  0  0  0  0  0
   -0.6290    2.4130    0.0000 C   0  0  0  0  0  0  0  0  0  0  0  0
   -1.4180    2.1920    0.0000 C   0  0  0  0  0  0  0  0  0  0  0  0
    0.7570    2.0570    0.0000 O   0  0  0  0  0  0  0  0  0  0  0  0
    1.3460    1.4790    0.0000 C   0  0  0  0  0  0  0  0  0  0  0  0
    1.1380    0.6840    0.0000 C   0  0  0  0  0  0  0  0  0  0  0  0
    1.7260    0.1060    0.0000 C   0  0  0  0  0  0  0  0  0  0  0  0
    2.5220    0.3270    0.0000 C   0  0  0  0  0  0  0  0  0  0  0  0
    2.7260    1.1310    0.0000 C   0  0  0  0  0  0  0  0  0  0  0  0
    2.1370    1.7050    0.0000 C   0  0  0  0  0  0  0  0  0  0  0  0
    3.1120   -0.2440    0.0000 C   0  0  0  0  0  0  0  0  0  0  0  0
    3.7010   -0.8210    0.0000 N   0  0  0  0  0  0  0  0  0  0  0  0
   -4.4850    3.9710    0.0000 H   0  0  0  0  0  0  0  0  0  0  0  0
   -4.4690    1.1490    0.0000 H   0  0  0  0  0  0  0  0  0  0  0  0
  2  3  1  0  0  0  0
  3  4  1  0  0  0  0
  4  6  1  0  0  0  0
  7  5  1  0  0  0  0
  5  2  1  0  0  0  0
  6  7  1  0  0  0  0
  7  8  1  0  0  0  0
  6  9  1  0  0  0  0
  8 10  1  0  0  0  0
  9  1  1  0  0  0  0
 10 11  1  0  0  0  0
  1 11  1  0  0  0  0
  9 12  1  6  0  0  0
 12 13  1  0  0  0  0
 12 14  2  0  0  0  0
 13 15  1  0  0  0  0
  1 16  1  0  0  0  0
 16 17  1  0  0  0  0
 16 18  2  0  0  0  0
 16 19  2  0  0  0  0
 17 20  2  0  0  0  0
 20 21  1  0  0  0  0
 21 22  2  0  0  0  0
 22 23  1  0  0  0  0
 23 24  2  0  0  0  0
 24 17  1  0  0  0  0
 22 25  1  0  0  0  0
 25 26  1  0  0  0  0
 26 27  2  0  0  0  0
 27 28  1  0  0  0  0
 28 29  2  0  0  0  0
 29 30  1  0  0  0  0
 30 31  2  0  0  0  0
 31 26  1  0  0  0  0
 32 33  3  0  0  0  0
 29 32  1  0  0  0  0
  7 34  1  1  0  0  0
  6 35  1  1  0  0  0
M  END
>  <ID_NEW>
CPDMM2119

>  <pIC50>
7.842724603545963

$$$$

  SciTegic12180812542D

 34 37  0  0  0  0            999 V2000
   -2.2333    2.1708    0.0000 S   0  0
   -2.9417    2.5875    0.0000 N   0  0
   -3.6750    2.1875    0.0000 C   0  0
   -1.5125    1.7583    0.0000 C   0  0
   -3.6708    1.3625    0.0000 C   0  0
   -4.3875    2.6000    0.0000 C   0  0
   -2.9417    3.4292    0.0000 C   0  0
   -1.8125    2.8917    0.0000 O   0  0
   -2.6375    1.4667    0.0000 O   0  0
   -0.7917    0.5125    0.0000 N   0  0
   -0.0708    0.9208    0.0000 C   0  0
    4.2417    0.9000    0.0000 C   0  0
    3.5083    0.4875    0.0000 N   0  0
   -1.5125    0.9292    0.0000 C   0  0
   -4.3875    3.4167    0.0000 C   0  0
   -2.9417    0.9458    0.0000 O   0  0
    2.0875    0.4917    0.0000 C   0  0
    2.7917    0.9042    0.0000 C   0  0
   -0.8042    2.1708    0.0000 C   0  0
    0.6417    0.5042    0.0000 O   0  0
   -3.6708    3.8333    0.0000 C   0  0
   -4.3792    0.9458    0.0000 N   0  0
    1.3625    0.9125    0.0000 C   0  0
    4.9750    0.4875    0.0000 O   0  0
   -0.0750    1.7583    0.0000 C   0  0
   -4.3792    0.1250    0.0000 O   0  0
   -5.1000    2.1875    0.0000 C   0  0
    2.0875    2.1500    0.0000 C   0  0
    4.2542    1.7208    0.0000 C   0  0
    2.8042    1.7167    0.0000 C   0  0
    1.3625    1.7292    0.0000 C   0  0
   -5.1083    3.8333    0.0000 C   0  0
   -5.8167    2.6000    0.0000 C   0  0
   -5.8333    3.4292    0.0000 C   0  0
 19  4  1  0
 20 11  1  0
 21  7  1  0
 22  5  1  0
 23 20  1  0
 24 12  2  0
 25 19  2  0
 26 22  1  0
 27  6  2  0
 28 31  2  0
 29 12  1  0
 30 28  1  0
 31 23  1  0
 32 15  2  0
 33 27  1  0
 34 32  1  0
 15  6  1  0
 10 11  2  0
 34 33  2  0
 30 18  2  0
  2  1  1  0
  3  2  1  0
  4  1  1  0
  5  3  1  0
  6  3  1  0
  7  2  1  0
  8  1  2  0
  9  1  2  0
 10 14  1  0
 11 25  1  0
 12 13  1  0
 13 18  1  0
 14  4  2  0
 15 21  1  0
 16  5  2  0
 17 23  2  0
 18 17  1  0
M  END
>  <ID_NEW>
CPDMM2120

>  <pIC50>
7.823908740944318

$$$$

  -MTS-   10172316422D 0   0.00000     0.00000     0

 30 32  0  0  0  0  0  0  0  0999 V2000
   -6.0290    1.8080    0.0000 S   0  0  0  0  0  0  0  0  0  0  0  0
   -6.7620    1.8120    0.0000 N   0  0  0  0  0  0  0  0  0  0  0  0
   -7.1370    1.1960    0.0000 C   0  0  1  0  0  0  0  0  0  0  0  0
   -6.7790    0.5620    0.0000 C   0  0  0  0  0  0  0  0  0  0  0  0
   -2.6830    1.1710    0.0000 C   0  0  0  0  0  0  0  0  0  0  0  0
   -7.8670    1.2000    0.0000 C   0  0  2  0  0  0  0  0  0  0  0  0
   -7.1170    2.4580    0.0000 C   0  0  0  0  0  0  0  0  0  0  0  0
   -5.2830    1.8080    0.0000 C   0  0  0  0  0  0  0  0  0  0  0  0
   -6.0170    2.5580    0.0000 O   0  0  0  0  0  0  0  0  0  0  0  0
   -6.0420    1.0870    0.0000 O   0  0  0  0  0  0  0  0  0  0  0  0
   -3.0460    1.8080    0.0000 O   0  0  0  0  0  0  0  0  0  0  0  0
   -6.0540    0.5500    0.0000 O   0  0  0  0  0  0  0  0  0  0  0  0
   -8.2210    1.8330    0.0000 C   0  0  2  0  0  0  0  0  0  0  0  0
   -7.1500   -0.0750    0.0000 N   0  0  0  0  0  0  0  0  0  0  0  0
   -7.8460    2.4620    0.0000 C   0  0  0  0  0  0  0  0  0  0  0  0
   -4.9120    2.4540    0.0000 C   0  0  0  0  0  0  0  0  0  0  0  0
   -4.9120    1.1830    0.0000 C   0  0  0  0  0  0  0  0  0  0  0  0
   -2.9580    0.4460    0.0000 F   0  0  0  0  0  0  0  0  0  0  0  0
   -1.9120    1.0330    0.0000 F   0  0  0  0  0  0  0  0  0  0  0  0
   -2.3460    0.5830    0.0000 F   0  0  0  0  0  0  0  0  0  0  0  0
   -3.7870    1.8080    0.0000 C   0  0  0  0  0  0  0  0  0  0  0  0
   -4.1710    1.1830    0.0000 C   0  0  0  0  0  0  0  0  0  0  0  0
   -4.1580    2.4460    0.0000 C   0  0  0  0  0  0  0  0  0  0  0  0
   -6.7750   -0.6920    0.0000 O   0  0  0  0  0  0  0  0  0  0  0  0
   -8.2420    0.5620    0.0000 C   0  0  0  0  0  0  0  0  0  0  0  0
   -8.9670    1.8330    0.0000 C   0  0  0  0  0  0  0  0  0  0  0  0
   -8.9790    0.5830    0.0000 C   0  0  0  0  0  0  0  0  0  0  0  0
   -9.3540    1.2210    0.0000 C   0  0  0  0  0  0  0  0  0  0  0  0
   -8.7150    2.7030    0.0000 H   0  0  0  0  0  0  0  0  0  0  0  0
   -7.3730    0.3300    0.0000 H   0  0  0  0  0  0  0  0  0  0  0  0
  2  1  1  0  0  0  0
  3  2  1  0  0  0  0
  3  4  1  1  0  0  0
  5 11  1  0  0  0  0
  6  3  1  0  0  0  0
  7  2  1  0  0  0  0
  8  1  1  0  0  0  0
  9  1  2  0  0  0  0
 10  1  2  0  0  0  0
 11 21  1  0  0  0  0
 12  4  2  0  0  0  0
 13 15  1  0  0  0  0
 14  4  1  0  0  0  0
 15  7  1  0  0  0  0
 16  8  2  0  0  0  0
 17  8  1  0  0  0  0
 18  5  1  0  0  0  0
 19  5  1  0  0  0  0
 20  5  1  0  0  0  0
 21 23  2  0  0  0  0
 22 17  2  0  0  0  0
 23 16  1  0  0  0  0
 24 14  1  0  0  0  0
 25  6  1  0  0  0  0
 26 13  1  0  0  0  0
 27 25  1  0  0  0  0
 28 26  1  0  0  0  0
 22 21  1  0  0  0  0
  6 13  1  0  0  0  0
 28 27  1  0  0  0  0
 13 29  1  6  0  0  0
  6 30  1  6  0  0  0
V    3 M1
V    6 M1
V   13 M1
M  END
>  <ID_NEW>
CPDMM2121

>  <pIC50>
7.823908740944318

$$$$

  SciTegic12180813002D

 33 36  0  0  0  0            999 V2000
   -1.5523    1.4243    0.0000 C   0  0
   -1.5534    0.5970    0.0000 C   0  0
   -0.8386    0.1841    0.0000 C   0  0
   -0.1222    0.5975    0.0000 C   0  0
   -0.1250    1.4280    0.0000 C   0  0
   -0.8404    1.8371    0.0000 C   0  0
   -2.2682    0.1850    0.0000 S   0  0
   -2.8592   -0.3965    0.0000 O   0  0
   -1.6883   -0.3965    0.0000 O   0  0
   -5.8333    1.4208    0.0000 C   0  0
   -5.8333    0.5958    0.0000 C   0  0
   -5.1213    0.1875    0.0000 C   0  0
   -5.1213    1.8375    0.0000 C   0  0
   -4.4093    1.4208    0.0000 C   0  0
   -4.4082    0.5958    0.0000 C   0  0
   -3.6972    0.1865    0.0000 C   0  0
   -2.9826    0.5976    0.0000 N   0  0
   -2.9837    1.4226    0.0000 C   0  0
   -3.6993    1.8365    0.0000 C   0  0
   -3.6973   -0.6385    0.0000 C   0  0
   -4.4110   -1.0523    0.0000 N   0  0
   -2.9820   -1.0525    0.0000 O   0  0
    0.5879    1.8432    0.0000 C   0  0
    1.3010    1.4314    0.0000 C   0  0
    2.0134    1.8459    0.0000 C   0  0
    2.0108    2.6718    0.0000 C   0  0
    1.2897    3.0814    0.0000 C   0  0
    0.5803    2.6645    0.0000 C   0  0
    2.7232    3.0879    0.0000 S   0  0
    3.4333    3.5083    0.0000 C   0  0
    3.1414    2.3767    0.0000 O   0  0
    2.3047    3.7989    0.0000 O   0  0
   -4.4167   -1.8750    0.0000 O   0  0
  1  2  2  0
  2  3  1  0
  3  4  2  0
  4  5  1  0
  5  6  2  0
  6  1  1  0
  2  7  1  0
  7  8  2  0
  7  9  2  0
 10 11  1  0
 10 13  1  0
 11 12  1  0
 12 15  1  0
 14 13  1  0
 14 15  1  0
 14 19  1  0
 15 16  1  0
 16 17  1  0
 17 18  1  0
 18 19  1  0
 16 20  1  0
 20 21  1  0
 20 22  2  0
 17  7  1  0
  5 23  1  0
 23 24  2  0
 24 25  1  0
 25 26  2  0
 26 27  1  0
 27 28  2  0
 28 23  1  0
 26 29  1  0
 29 30  1  0
 29 31  2  0
 29 32  2  0
 21 33  1  0
M  END
>  <ID_NEW>
CPDMM2122

>  <pIC50>
7.810144886210385

$$$$

  SciTegic12180812532D

 29 32  0  0  0  0            999 V2000
    0.5716    2.6045    0.0000 C   0  0
    1.2820    2.1919    0.0000 C   0  0
    1.9923    2.6007    0.0000 C   0  0
    1.9936    3.4220    0.0000 C   0  0
    1.2785    3.8327    0.0000 C   0  0
    0.5710    3.4215    0.0000 C   0  0
   -1.5618    1.3670    0.0000 C   0  0
   -0.8514    0.9544    0.0000 C   0  0
   -0.1410    1.3632    0.0000 C   0  0
   -0.1398    2.1845    0.0000 C   0  0
   -0.8548    2.5952    0.0000 C   0  0
   -1.5623    2.1840    0.0000 C   0  0
   -4.4125    2.1875    0.0000 C   0  0
   -4.4125    1.3625    0.0000 C   0  0
   -3.7020    0.9523    0.0000 C   0  0
   -2.9869    1.3625    0.0000 N   0  0
   -2.9869    2.1875    0.0000 C   0  0
   -3.7020    2.6023    0.0000 C   0  0
   -5.8333    2.1875    0.0000 C   0  0
   -5.8333    1.3625    0.0000 C   0  0
   -5.1213    0.9542    0.0000 C   0  0
   -5.1213    2.6042    0.0000 C   0  0
   -3.7083    0.1292    0.0000 C   0  0
   -4.4250   -0.2792    0.0000 O   0  0
   -2.9958   -0.2833    0.0000 N   0  0
   -3.0000   -1.1083    0.0000 O   0  0
   -2.2750    0.9500    0.0000 S   0  0
   -2.9917    0.5417    0.0000 O   0  0
   -1.6917    0.3667    0.0000 O   0  0
 13 18  1  0
 14 15  1  0
 15 16  1  0
 16 17  1  0
 17 18  1  0
 19 20  1  0
  4  5  1  0
  9 10  2  0
  2  3  1  0
 10 11  1  0
 19 22  1  0
 20 21  1  0
 21 14  1  0
 13 22  1  0
  5  6  2  0
 15 23  1  0
 11 12  2  0
 12  7  1  0
 13 14  1  0
 23 24  2  0
  6  1  1  0
 23 25  1  0
  1  2  2  0
 25 26  1  0
  3  4  2  0
 16 27  1  0
 27  7  1  0
 10  1  1  0
  7  8  2  0
 27 28  2  0
  8  9  1  0
 27 29  2  0
M  END
>  <ID_NEW>
CPDMM2123

>  <pIC50>
7.769551078621725

$$$$

  -MTS-   10172316422D 0   0.00000     0.00000     0

 32 35  0  0  0  0  0  0  0  0999 V2000
   -6.0330    1.8080    0.0000 S   0  0  0  0  0  0  0  0  0  0  0  0
   -6.7790    1.8080    0.0000 N   0  0  0  0  0  0  0  0  0  0  0  0
   -7.1540    1.1960    0.0000 C   0  0  1  0  0  0  0  0  0  0  0  0
   -6.7960    0.5580    0.0000 C   0  0  0  0  0  0  0  0  0  0  0  0
   -7.8790    1.2000    0.0000 C   0  0  2  0  0  0  0  0  0  0  0  0
   -7.1290    2.4580    0.0000 C   0  0  0  0  0  0  0  0  0  0  0  0
   -5.2960    1.8000    0.0000 C   0  0  0  0  0  0  0  0  0  0  0  0
   -6.0460    1.0750    0.0000 O   0  0  0  0  0  0  0  0  0  0  0  0
   -6.0290    2.5460    0.0000 O   0  0  0  0  0  0  0  0  0  0  0  0
   -6.0750    0.5460    0.0000 O   0  0  0  0  0  0  0  0  0  0  0  0
   -8.2420    1.8250    0.0000 C   0  0  2  0  0  0  0  0  0  0  0  0
   -7.1670   -0.0750    0.0000 N   0  0  0  0  0  0  0  0  0  0  0  0
   -7.8670    2.4620    0.0000 C   0  0  0  0  0  0  0  0  0  0  0  0
   -4.9460    1.1710    0.0000 C   0  0  0  0  0  0  0  0  0  0  0  0
   -4.9250    2.4330    0.0000 C   0  0  0  0  0  0  0  0  0  0  0  0
   -3.0750    1.7870    0.0000 O   0  0  0  0  0  0  0  0  0  0  0  0
   -3.8120    1.8000    0.0000 C   0  0  0  0  0  0  0  0  0  0  0  0
   -4.1830    2.4330    0.0000 C   0  0  0  0  0  0  0  0  0  0  0  0
   -4.1960    1.1580    0.0000 C   0  0  0  0  0  0  0  0  0  0  0  0
   -2.7080    1.1580    0.0000 C   0  0  0  0  0  0  0  0  0  0  0  0
   -6.7920   -0.6920    0.0000 O   0  0  0  0  0  0  0  0  0  0  0  0
   -8.2580    0.5580    0.0000 C   0  0  0  0  0  0  0  0  0  0  0  0
   -8.9870    1.8330    0.0000 C   0  0  0  0  0  0  0  0  0  0  0  0
   -1.9710    1.1460    0.0000 C   0  0  0  0  0  0  0  0  0  0  0  0
   -3.0870    0.5120    0.0000 C   0  0  0  0  0  0  0  0  0  0  0  0
   -9.0040    0.5750    0.0000 C   0  0  0  0  0  0  0  0  0  0  0  0
   -9.3750    1.2210    0.0000 C   0  0  0  0  0  0  0  0  0  0  0  0
   -2.7210   -0.1290    0.0000 C   0  0  0  0  0  0  0  0  0  0  0  0
   -1.6000    0.5080    0.0000 C   0  0  0  0  0  0  0  0  0  0  0  0
   -1.9710   -0.1290    0.0000 C   0  0  0  0  0  0  0  0  0  0  0  0
   -8.7330    2.6960    0.0000 H   0  0  0  0  0  0  0  0  0  0  0  0
   -7.3860    0.3300    0.0000 H   0  0  0  0  0  0  0  0  0  0  0  0
  2  1  1  0  0  0  0
  3  2  1  0  0  0  0
  3  4  1  1  0  0  0
  5  3  1  0  0  0  0
  6  2  1  0  0  0  0
  7  1  1  0  0  0  0
  8  1  2  0  0  0  0
  9  1  2  0  0  0  0
 10  4  2  0  0  0  0
 11 13  1  0  0  0  0
 12  4  1  0  0  0  0
 13  6  1  0  0  0  0
 14  7  1  0  0  0  0
 15  7  2  0  0  0  0
 16 17  1  0  0  0  0
 17 19  1  0  0  0  0
 18 15  1  0  0  0  0
 19 14  2  0  0  0  0
 20 16  1  0  0  0  0
 21 12  1  0  0  0  0
 22  5  1  0  0  0  0
 23 11  1  0  0  0  0
 24 20  1  0  0  0  0
 25 20  2  0  0  0  0
 26 22  1  0  0  0  0
 27 23  1  0  0  0  0
 28 25  1  0  0  0  0
 29 24  2  0  0  0  0
 30 29  1  0  0  0  0
 18 17  2  0  0  0  0
  5 11  1  0  0  0  0
 27 26  1  0  0  0  0
 30 28  2  0  0  0  0
 11 31  1  6  0  0  0
  5 32  1  6  0  0  0
V    3 M1
V    5 M1
V   11 M1
M  END
>  <ID_NEW>
CPDMM2124

>  <pIC50>
7.769551078621725

$$$$

  -MTS-   10172316422D 0   0.00000     0.00000     0

 30 33  0  0  1  0  0  0  0  0999 V2000
   -5.9960    1.7870    0.0000 S   0  0  0  0  0  0  0  0  0  0  0  0
   -6.7290    1.7830    0.0000 N   0  0  0  0  0  0  0  0  0  0  0  0
   -7.1040    1.1460    0.0000 C   0  0  1  0  0  0  0  0  0  0  0  0
   -6.7290    0.5080    0.0000 C   0  0  0  0  0  0  0  0  0  0  0  0
   -7.8460    1.1460    0.0000 C   0  0  0  0  0  0  0  0  0  0  0  0
   -7.1040    2.4210    0.0000 C   0  0  0  0  0  0  0  0  0  0  0  0
   -5.2580    1.7960    0.0000 C   0  0  0  0  0  0  0  0  0  0  0  0
   -5.9960    1.0580    0.0000 O   0  0  0  0  0  0  0  0  0  0  0  0
   -6.0000    2.5210    0.0000 O   0  0  0  0  0  0  0  0  0  0  0  0
   -8.2210    1.7710    0.0000 C   0  0  0  0  0  0  0  0  0  0  0  0
   -5.9960    0.5080    0.0000 O   0  0  0  0  0  0  0  0  0  0  0  0
   -7.8540    2.4120    0.0000 C   0  0  0  0  0  0  0  0  0  0  0  0
   -7.0920   -0.1290    0.0000 N   0  0  0  0  0  0  0  0  0  0  0  0
   -4.8830    1.1710    0.0000 C   0  0  0  0  0  0  0  0  0  0  0  0
   -4.8960    2.4370    0.0000 C   0  0  0  0  0  0  0  0  0  0  0  0
   -3.0330    1.8210    0.0000 O   0  0  0  0  0  0  0  0  0  0  0  0
   -3.7710    1.8210    0.0000 C   0  0  0  0  0  0  0  0  0  0  0  0
   -4.1540    2.4460    0.0000 C   0  0  0  0  0  0  0  0  0  0  0  0
   -4.1460    1.1750    0.0000 C   0  0  0  0  0  0  0  0  0  0  0  0
   -2.6580    1.1960    0.0000 C   0  0  0  0  0  0  0  0  0  0  0  0
   -6.7290   -0.7620    0.0000 O   0  0  0  0  0  0  0  0  0  0  0  0
   -8.2040    0.5080    0.0000 C   0  0  0  0  0  0  0  0  0  0  0  0
   -8.9670    1.7580    0.0000 C   0  0  0  0  0  0  0  0  0  0  0  0
   -1.9080    1.1960    0.0000 C   0  0  0  0  0  0  0  0  0  0  0  0
   -3.0250    0.5500    0.0000 C   0  0  0  0  0  0  0  0  0  0  0  0
   -8.9370    0.4960    0.0000 C   0  0  0  0  0  0  0  0  0  0  0  0
   -9.3170    1.1330    0.0000 C   0  0  0  0  0  0  0  0  0  0  0  0
   -2.6460   -0.0870    0.0000 C   0  0  0  0  0  0  0  0  0  0  0  0
   -1.5370    0.5710    0.0000 C   0  0  0  0  0  0  0  0  0  0  0  0
   -1.8960   -0.0790    0.0000 C   0  0  0  0  0  0  0  0  0  0  0  0
  2  1  1  0  0  0  0
  3  2  1  0  0  0  0
  3  4  1  1  0  0  0
  5  3  1  0  0  0  0
  6  2  1  0  0  0  0
  7  1  1  0  0  0  0
  8  1  2  0  0  0  0
  9  1  2  0  0  0  0
 10 12  1  0  0  0  0
 11  4  2  0  0  0  0
 12  6  1  0  0  0  0
 13  4  1  0  0  0  0
 14  7  1  0  0  0  0
 15  7  2  0  0  0  0
 16 17  1  0  0  0  0
 17 19  1  0  0  0  0
 18 15  1  0  0  0  0
 19 14  2  0  0  0  0
 20 16  1  0  0  0  0
 21 13  1  0  0  0  0
 22  5  2  0  0  0  0
 23 10  2  0  0  0  0
 24 20  1  0  0  0  0
 25 20  2  0  0  0  0
 26 22  1  0  0  0  0
 27 23  1  0  0  0  0
 28 25  1  0  0  0  0
 29 24  2  0  0  0  0
 30 29  1  0  0  0  0
 18 17  2  0  0  0  0
 10  5  1  0  0  0  0
 27 26  2  0  0  0  0
 30 28  2  0  0  0  0
M  END
>  <ID_NEW>
CPDMM2125

>  <pIC50>
7.769551078621725

$$$$

  -MTS-   10172316422D 0   0.00000     0.00000     0

 30 33  0  0  1  0  0  0  0  0999 V2000
   -1.9760   -0.3000    0.0000 C   0  0  0  0  0  0  0  0  0  0  0  0
   -1.9780   -1.1230    0.0000 C   0  0  0  0  0  0  0  0  0  0  0  0
   -1.2590   -1.5360    0.0000 C   0  0  0  0  0  0  0  0  0  0  0  0
   -1.2600    0.1130    0.0000 C   0  0  0  0  0  0  0  0  0  0  0  0
   -0.5490   -0.2960    0.0000 C   0  0  0  0  0  0  0  0  0  0  0  0
   -0.5500   -1.1210    0.0000 C   0  0  0  0  0  0  0  0  0  0  0  0
    0.1650   -1.5360    0.0000 C   0  0  0  0  0  0  0  0  0  0  0  0
    0.8810   -1.1230    0.0000 N   0  0  0  0  0  0  0  0  0  0  0  0
    0.8820   -0.2990    0.0000 C   0  0  2  0  0  0  0  0  0  0  0  0
    0.1670    0.1130    0.0000 C   0  0  0  0  0  0  0  0  0  0  0  0
    1.6040    0.1160    0.0000 C   0  0  0  0  0  0  0  0  0  0  0  0
    2.3150   -0.3030    0.0000 O   0  0  0  0  0  0  0  0  0  0  0  0
    1.6050    0.9410    0.0000 O   0  0  0  0  0  0  0  0  0  0  0  0
    1.6010   -1.5420    0.0000 S   0  0  0  0  0  0  0  0  0  0  0  0
    2.0230   -0.8240    0.0000 O   0  0  0  0  0  0  0  0  0  0  0  0
    1.1820   -2.2650    0.0000 O   0  0  0  0  0  0  0  0  0  0  0  0
    2.3230   -1.9640    0.0000 C   0  0  0  0  0  0  0  0  0  0  0  0
    3.0430   -1.5510    0.0000 C   0  0  0  0  0  0  0  0  0  0  0  0
    3.7580   -1.9690    0.0000 C   0  0  0  0  0  0  0  0  0  0  0  0
    3.7460   -2.7970    0.0000 C   0  0  0  0  0  0  0  0  0  0  0  0
    4.4600   -3.2100    0.0000 C   0  0  0  0  0  0  0  0  0  0  0  0
    5.1880   -2.8060    0.0000 C   0  0  0  0  0  0  0  0  0  0  0  0
    5.1940   -1.9810    0.0000 C   0  0  0  0  0  0  0  0  0  0  0  0
    4.4760   -1.5590    0.0000 C   0  0  0  0  0  0  0  0  0  0  0  0
    5.9030   -3.2190    0.0000 C   0  0  0  0  0  0  0  0  0  0  0  0
    5.9020   -4.0470    0.0000 C   0  0  0  0  0  0  0  0  0  0  0  0
    6.6150   -4.4590    0.0000 C   0  0  0  0  0  0  0  0  0  0  0  0
    7.3350   -4.0460    0.0000 N   0  0  0  0  0  0  0  0  0  0  0  0
    7.3360   -3.2170    0.0000 C   0  0  0  0  0  0  0  0  0  0  0  0
    6.6180   -2.8040    0.0000 C   0  0  0  0  0  0  0  0  0  0  0  0
  1  2  2  0  0  0  0
 14 15  2  0  0  0  0
  5  4  2  0  0  0  0
 14 16  2  0  0  0  0
  4  1  1  0  0  0  0
 14 17  1  0  0  0  0
  5 10  1  0  0  0  0
 17 18  1  0  0  0  0
  6  7  1  0  0  0  0
 18 19  1  0  0  0  0
  7  8  1  0  0  0  0
 19 20  2  0  0  0  0
  8  9  1  0  0  0  0
 20 21  1  0  0  0  0
  9 10  1  0  0  0  0
 21 22  2  0  0  0  0
  5  6  1  0  0  0  0
 22 23  1  0  0  0  0
  9 11  1  6  0  0  0
 23 24  2  0  0  0  0
 24 19  1  0  0  0  0
 22 25  1  0  0  0  0
 11 12  1  0  0  0  0
 25 26  2  0  0  0  0
  2  3  1  0  0  0  0
 26 27  1  0  0  0  0
 11 13  2  0  0  0  0
 27 28  2  0  0  0  0
  3  6  2  0  0  0  0
 28 29  1  0  0  0  0
  8 14  1  0  0  0  0
 29 30  2  0  0  0  0
 30 25  1  0  0  0  0
M  END
>  <ID_NEW>
CPDMM2126

>  <pIC50>
7.698970004336018

$$$$

  -MTS-   10172316422D 0   0.00000     0.00000     0

 36 39  0  0  1  0  0  0  0  0999 V2000
   -5.6760    2.6830    0.0000 C   0  0  0  0  0  0  0  0  0  0  0  0
   -5.6780    2.1100    0.0000 C   0  0  0  0  0  0  0  0  0  0  0  0
   -5.1710    1.8220    0.0000 C   0  0  0  0  0  0  0  0  0  0  0  0
   -5.1730    2.9710    0.0000 C   0  0  0  0  0  0  0  0  0  0  0  0
   -4.6820    2.6870    0.0000 C   0  0  0  0  0  0  0  0  0  0  0  0
   -4.6790    2.1080    0.0000 C   0  0  0  0  0  0  0  0  0  0  0  0
   -4.1790    1.8180    0.0000 C   0  0  0  0  0  0  0  0  0  0  0  0
   -3.6770    2.1060    0.0000 N   0  0  0  0  0  0  0  0  0  0  0  0
   -3.6760    2.6850    0.0000 C   0  0  2  0  0  0  0  0  0  0  0  0
   -4.1810    2.9800    0.0000 C   0  0  0  0  0  0  0  0  0  0  0  0
   -3.1810    1.8160    0.0000 S   0  0  0  0  0  0  0  0  0  0  0  0
   -2.6870    1.5290    0.0000 C   0  0  0  0  0  0  0  0  0  0  0  0
   -2.6920    0.9570    0.0000 C   0  0  0  0  0  0  0  0  0  0  0  0
   -2.1960    0.6700    0.0000 C   0  0  0  0  0  0  0  0  0  0  0  0
   -1.7030    0.9580    0.0000 C   0  0  0  0  0  0  0  0  0  0  0  0
   -1.7040    1.5290    0.0000 C   0  0  0  0  0  0  0  0  0  0  0  0
   -2.1930    1.8170    0.0000 C   0  0  0  0  0  0  0  0  0  0  0  0
   -1.2100    0.6710    0.0000 C   0  0  0  0  0  0  0  0  0  0  0  0
   -1.2120    0.0950    0.0000 C   0  0  0  0  0  0  0  0  0  0  0  0
   -0.7110   -0.1930    0.0000 C   0  0  0  0  0  0  0  0  0  0  0  0
   -0.2210    0.0930    0.0000 C   0  0  0  0  0  0  0  0  0  0  0  0
   -0.2180    0.6680    0.0000 C   0  0  0  0  0  0  0  0  0  0  0  0
   -0.7110    0.9570    0.0000 C   0  0  0  0  0  0  0  0  0  0  0  0
    0.2810   -0.1940    0.0000 N   0  0  0  0  0  0  0  0  0  0  0  0
    0.7790   -0.4790    0.0000 S   0  0  0  0  0  0  0  0  0  0  0  0
    1.2710   -0.7620    0.0000 C   0  0  0  0  0  0  0  0  0  0  0  0
    1.7730   -0.4760    0.0000 C   0  0  0  0  0  0  0  0  0  0  0  0
    1.2700   -1.3420    0.0000 C   0  0  0  0  0  0  0  0  0  0  0  0
    1.0590    0.0180    0.0000 O   0  0  0  0  0  0  0  0  0  0  0  0
    0.4800   -0.9670    0.0000 O   0  0  0  0  0  0  0  0  0  0  0  0
   -3.4700    1.3240    0.0000 O   0  0  0  0  0  0  0  0  0  0  0  0
   -2.8920    2.3150    0.0000 O   0  0  0  0  0  0  0  0  0  0  0  0
   -3.1820    2.9710    0.0000 C   0  0  0  0  0  0  0  0  0  0  0  0
   -3.1800    3.5500    0.0000 O   0  0  0  0  0  0  0  0  0  0  0  0
   -2.6870    2.6840    0.0000 N   0  0  0  0  0  0  0  0  0  0  0  0
   -2.1920    2.9690    0.0000 O   0  0  0  0  0  0  0  0  0  0  0  0
 16 17  2  0  0  0  0
 17 12  1  0  0  0  0
  5 10  1  0  0  0  0
  6  7  1  0  0  0  0
 18 19  2  0  0  0  0
  7  8  1  0  0  0  0
 19 20  1  0  0  0  0
  8  9  1  0  0  0  0
 20 21  2  0  0  0  0
  9 10  1  0  0  0  0
 21 22  1  0  0  0  0
  5  6  1  0  0  0  0
 22 23  2  0  0  0  0
 23 18  1  0  0  0  0
 15 18  1  0  0  0  0
  8 11  1  0  0  0  0
 21 24  1  0  0  0  0
 24 25  1  0  0  0  0
 11 12  1  0  0  0  0
 25 26  1  0  0  0  0
  2  3  1  0  0  0  0
 26 27  1  0  0  0  0
 12 13  2  0  0  0  0
 26 28  1  0  0  0  0
  3  6  2  0  0  0  0
 25 29  2  0  0  0  0
 13 14  1  0  0  0  0
 25 30  2  0  0  0  0
  1  2  2  0  0  0  0
 11 31  2  0  0  0  0
 14 15  2  0  0  0  0
 11 32  2  0  0  0  0
  5  4  2  0  0  0  0
  9 33  1  6  0  0  0
 15 16  1  0  0  0  0
  4  1  1  0  0  0  0
 33 34  2  0  0  0  0
 33 35  1  0  0  0  0
 35 36  1  0  0  0  0
M  END
>  <ID_NEW>
CPDMM2127

>  <pIC50>
7.698970004336018

$$$$

  -MTS-   10172316422D 0   0.00000     0.00000     0

 36 39  0  0  1  0  0  0  0  0999 V2000
   -4.3180    1.4040    0.0000 C   0  0  0  0  0  0  0  0  0  0  0  0
   -4.3190    0.5770    0.0000 C   0  0  0  0  0  0  0  0  0  0  0  0
   -3.6040    0.1640    0.0000 C   0  0  0  0  0  0  0  0  0  0  0  0
   -3.6060    1.8170    0.0000 C   0  0  0  0  0  0  0  0  0  0  0  0
   -2.8910    1.4080    0.0000 C   0  0  0  0  0  0  0  0  0  0  0  0
   -2.8870    0.5750    0.0000 C   0  0  0  0  0  0  0  0  0  0  0  0
   -2.1680    0.1630    0.0000 C   0  0  0  0  0  0  0  0  0  0  0  0
   -1.4480    0.5810    0.0000 N   0  0  0  0  0  0  0  0  0  0  0  0
   -1.4510    1.4140    0.0000 C   0  0  2  0  0  0  0  0  0  0  0  0
   -2.1750    1.8300    0.0000 C   0  0  0  0  0  0  0  0  0  0  0  0
   -0.7380    1.8280    0.0000 C   0  0  0  0  0  0  0  0  0  0  0  0
   -0.0220    1.4200    0.0000 N   0  0  0  0  0  0  0  0  0  0  0  0
   -0.7400    2.6550    0.0000 O   0  0  0  0  0  0  0  0  0  0  0  0
   -0.7320    0.1700    0.0000 S   0  0  0  0  0  0  0  0  0  0  0  0
    0.0920    0.1710    0.0000 C   0  0  0  0  0  0  0  0  0  0  0  0
    0.5020   -0.5450    0.0000 C   0  0  0  0  0  0  0  0  0  0  0  0
    1.3260   -0.5440    0.0000 C   0  0  0  0  0  0  0  0  0  0  0  0
    1.7380    0.1700    0.0000 C   0  0  0  0  0  0  0  0  0  0  0  0
    1.3210    0.8860    0.0000 C   0  0  0  0  0  0  0  0  0  0  0  0
    0.4990    0.8820    0.0000 C   0  0  0  0  0  0  0  0  0  0  0  0
    2.5630    0.1720    0.0000 C   0  0  0  0  0  0  0  0  0  0  0  0
    2.9730   -0.5410    0.0000 C   0  0  0  0  0  0  0  0  0  0  0  0
    3.7970   -0.5400    0.0000 C   0  0  0  0  0  0  0  0  0  0  0  0
    4.2090    0.1760    0.0000 C   0  0  0  0  0  0  0  0  0  0  0  0
    3.7910    0.8920    0.0000 C   0  0  0  0  0  0  0  0  0  0  0  0
    2.9680    0.8870    0.0000 C   0  0  0  0  0  0  0  0  0  0  0  0
    5.0340    0.1790    0.0000 N   0  0  0  0  0  0  0  0  0  0  0  0
    5.4440    0.8950    0.0000 S   0  0  0  0  0  0  0  0  0  0  0  0
    5.0290    1.6080    0.0000 O   0  0  0  0  0  0  0  0  0  0  0  0
   -1.4500   -0.2370    0.0000 O   0  0  0  0  0  0  0  0  0  0  0  0
   -0.3250   -0.5420    0.0000 O   0  0  0  0  0  0  0  0  0  0  0  0
    0.6870    1.8370    0.0000 O   0  0  0  0  0  0  0  0  0  0  0  0
    6.2690    0.8980    0.0000 N   0  0  0  0  0  0  0  0  0  0  0  0
    5.8500    1.6120    0.0000 O   0  0  0  0  0  0  0  0  0  0  0  0
    6.6840    0.1850    0.0000 C   0  0  0  0  0  0  0  0  0  0  0  0
    6.6790    1.6140    0.0000 C   0  0  0  0  0  0  0  0  0  0  0  0
  5 10  1  0  0  0  0
 17 18  2  0  0  0  0
  6  7  1  0  0  0  0
 18 19  1  0  0  0  0
  7  8  1  0  0  0  0
 19 20  2  0  0  0  0
 20 15  1  0  0  0  0
  8  9  1  0  0  0  0
 18 21  1  0  0  0  0
  9 10  1  0  0  0  0
 21 22  2  0  0  0  0
  5  6  1  0  0  0  0
 22 23  1  0  0  0  0
  9 11  1  6  0  0  0
 23 24  2  0  0  0  0
 24 25  1  0  0  0  0
  2  3  1  0  0  0  0
 25 26  2  0  0  0  0
 26 21  1  0  0  0  0
 11 12  1  0  0  0  0
 24 27  1  0  0  0  0
 11 13  2  0  0  0  0
 27 28  1  0  0  0  0
  3  6  2  0  0  0  0
 28 29  2  0  0  0  0
  8 14  1  0  0  0  0
 14 30  2  0  0  0  0
  1  2  2  0  0  0  0
 14 31  2  0  0  0  0
 14 15  1  0  0  0  0
 12 32  1  0  0  0  0
  5  4  2  0  0  0  0
 28 33  1  0  0  0  0
 15 16  2  0  0  0  0
 28 34  2  0  0  0  0
  4  1  1  0  0  0  0
 33 35  1  0  0  0  0
 16 17  1  0  0  0  0
 33 36  1  0  0  0  0
M  END
>  <ID_NEW>
CPDMM2128

>  <pIC50>
7.698970004336018

$$$$

  -MTS-   10172316422D 0   0.00000     0.00000     0

 32 35  0  0  0  0  0  0  0  0999 V2000
   -6.0290    1.8080    0.0000 S   0  0  0  0  0  0  0  0  0  0  0  0
   -6.7620    1.8120    0.0000 N   0  0  0  0  0  0  0  0  0  0  0  0
   -7.1370    1.1960    0.0000 C   0  0  1  0  0  0  0  0  0  0  0  0
   -6.7790    0.5620    0.0000 C   0  0  0  0  0  0  0  0  0  0  0  0
   -7.8670    1.2000    0.0000 C   0  0  2  0  0  0  0  0  0  0  0  0
   -7.1170    2.4580    0.0000 C   0  0  0  0  0  0  0  0  0  0  0  0
   -5.2830    1.8080    0.0000 C   0  0  0  0  0  0  0  0  0  0  0  0
   -6.0290    2.5620    0.0000 O   0  0  0  0  0  0  0  0  0  0  0  0
   -6.0170    1.0830    0.0000 O   0  0  0  0  0  0  0  0  0  0  0  0
   -6.0540    0.5500    0.0000 O   0  0  0  0  0  0  0  0  0  0  0  0
   -3.7960    1.8210    0.0000 C   0  0  0  0  0  0  0  0  0  0  0  0
   -3.0460    1.8210    0.0000 C   0  0  0  0  0  0  0  0  0  0  0  0
   -8.2210    1.8330    0.0000 C   0  0  2  0  0  0  0  0  0  0  0  0
   -7.1500   -0.0750    0.0000 N   0  0  0  0  0  0  0  0  0  0  0  0
   -7.8460    2.4620    0.0000 C   0  0  0  0  0  0  0  0  0  0  0  0
   -4.9120    1.1830    0.0000 C   0  0  0  0  0  0  0  0  0  0  0  0
   -4.9120    2.4580    0.0000 C   0  0  0  0  0  0  0  0  0  0  0  0
   -4.1540    1.1830    0.0000 C   0  0  0  0  0  0  0  0  0  0  0  0
   -4.1750    2.4580    0.0000 C   0  0  0  0  0  0  0  0  0  0  0  0
   -2.6830    2.4710    0.0000 C   0  0  0  0  0  0  0  0  0  0  0  0
   -2.6710    1.2000    0.0000 C   0  0  0  0  0  0  0  0  0  0  0  0
   -1.5710    1.8460    0.0000 C   0  0  0  0  0  0  0  0  0  0  0  0
   -1.9460    2.4830    0.0000 C   0  0  0  0  0  0  0  0  0  0  0  0
   -1.9250    1.2080    0.0000 C   0  0  0  0  0  0  0  0  0  0  0  0
   -0.8210    1.8460    0.0000 F   0  0  0  0  0  0  0  0  0  0  0  0
   -6.7750   -0.6920    0.0000 O   0  0  0  0  0  0  0  0  0  0  0  0
   -8.2420    0.5620    0.0000 C   0  0  0  0  0  0  0  0  0  0  0  0
   -8.9670    1.8330    0.0000 C   0  0  0  0  0  0  0  0  0  0  0  0
   -8.9790    0.5830    0.0000 C   0  0  0  0  0  0  0  0  0  0  0  0
   -9.3540    1.2210    0.0000 C   0  0  0  0  0  0  0  0  0  0  0  0
   -8.7150    2.7030    0.0000 H   0  0  0  0  0  0  0  0  0  0  0  0
   -7.3730    0.3300    0.0000 H   0  0  0  0  0  0  0  0  0  0  0  0
  2  1  1  0  0  0  0
  3  2  1  0  0  0  0
  3  4  1  1  0  0  0
  5  3  1  0  0  0  0
  6  2  1  0  0  0  0
  7  1  1  0  0  0  0
  8  1  2  0  0  0  0
  9  1  2  0  0  0  0
 10  4  2  0  0  0  0
 11 18  2  0  0  0  0
 12 11  1  0  0  0  0
 13 15  1  0  0  0  0
 14  4  1  0  0  0  0
 15  6  1  0  0  0  0
 16  7  2  0  0  0  0
 17  7  1  0  0  0  0
 18 16  1  0  0  0  0
 19 17  2  0  0  0  0
 20 12  1  0  0  0  0
 21 12  2  0  0  0  0
 22 23  1  0  0  0  0
 23 20  2  0  0  0  0
 24 21  1  0  0  0  0
 25 22  1  0  0  0  0
 26 14  1  0  0  0  0
 27  5  1  0  0  0  0
 28 13  1  0  0  0  0
 29 27  1  0  0  0  0
 30 28  1  0  0  0  0
 19 11  1  0  0  0  0
  5 13  1  0  0  0  0
 30 29  1  0  0  0  0
 22 24  2  0  0  0  0
 13 31  1  6  0  0  0
  5 32  1  6  0  0  0
V    3 M1
V    5 M1
V   13 M1
M  END
>  <ID_NEW>
CPDMM2129

>  <pIC50>
7.698970004336018

$$$$

  SciTegic12180813012D

 33 36  0  0  0  0            999 V2000
   -5.9958    1.7958    0.0000 S   0  0
   -6.7292    1.7958    0.0000 N   0  0
   -7.1042    1.1625    0.0000 C   0  0
   -7.8417    1.1583    0.0000 C   0  0
   -6.7292    0.5125    0.0000 C   0  0
   -8.2167    1.7958    0.0000 C   0  0
   -7.0958    2.4333    0.0000 C   0  0
   -5.2583    1.8000    0.0000 C   0  0
   -6.0000    1.0583    0.0000 O   0  0
   -5.9958    2.5208    0.0000 O   0  0
   -8.2042    0.5125    0.0000 C   0  0
   -7.8417    2.4333    0.0000 C   0  0
   -5.9958    0.5250    0.0000 O   0  0
   -8.9542    1.7958    0.0000 C   0  0
   -7.0917   -0.1125    0.0000 N   0  0
   -4.8958    2.4333    0.0000 C   0  0
   -4.8917    1.1583    0.0000 C   0  0
   -3.0333    1.8083    0.0000 O   0  0
   -9.3167    1.1583    0.0000 C   0  0
   -3.7708    1.8000    0.0000 C   0  0
   -2.6583    1.1708    0.0000 C   0  0
   -8.9417    0.5125    0.0000 C   0  0
   -1.9125   -0.1125    0.0000 C   0  0
   -4.1458    2.4458    0.0000 C   0  0
   -4.1417    1.1583    0.0000 C   0  0
   -1.5250   -0.7667    0.0000 Cl  0  0
   -6.7333   -0.7542    0.0000 O   0  0
   -3.0250    0.5333    0.0000 C   0  0
   -1.9125    1.1625    0.0000 C   0  0
   -2.6583   -0.1167    0.0000 C   0  0
   -1.5375    0.5250    0.0000 C   0  0
  -10.0542    1.1500    0.0000 O   0  0
  -10.4125    0.5083    0.0000 C   0  0
  2  1  1  0
  3  2  1  0
  4  3  1  0
  5  3  1  0
  6 12  1  0
  7  2  1  0
  8  1  1  0
  9  1  2  0
 10  1  2  0
 11  4  2  0
 12  7  1  0
 13  5  2  0
 14  6  2  0
 15  5  1  0
 16  8  1  0
 17  8  2  0
 18 20  1  0
 19 14  1  0
 20 24  1  0
 21 18  1  0
 22 11  1  0
 23 30  2  0
 24 16  2  0
 25 17  1  0
 26 23  1  0
 27 15  1  0
 28 21  2  0
 29 21  1  0
 30 28  1  0
 31 29  2  0
 32 19  1  0
 33 32  1  0
 20 25  2  0
  6  4  1  0
 19 22  2  0
 31 23  1  0
M  END
>  <ID_NEW>
CPDMM2130

>  <pIC50>
7.698970004336018

$$$$

  SciTegic12180812482D

 30 33  0  0  0  0            999 V2000
   -5.7056    3.2792    0.0000 C   0  0
   -5.7068    2.4519    0.0000 C   0  0
   -4.9919    2.0390    0.0000 C   0  0
   -4.9937    3.6920    0.0000 C   0  0
   -4.2784    3.2829    0.0000 C   0  0
   -4.2749    2.4498    0.0000 C   0  0
   -3.5558    2.0385    0.0000 C   0  0
   -2.8354    2.4557    0.0000 N   0  0
   -2.8388    3.2888    0.0000 C   0  0
   -3.5626    3.7047    0.0000 C   0  0
   -3.5535    1.2135    0.0000 C   0  0
   -4.2654    0.7954    0.0000 N   0  0
   -2.8365    0.7992    0.0000 O   0  0
   -2.1198    2.0451    0.0000 S   0  0
   -2.8375    1.6375    0.0000 O   0  0
   -1.7125    1.3334    0.0000 O   0  0
   -1.3250    2.2625    0.0000 C   0  0
   -0.7405    1.6802    0.0000 C   0  0
    0.0537    1.8971    0.0000 C   0  0
    0.2634    2.6948    0.0000 C   0  0
   -0.3272    3.2755    0.0000 C   0  0
   -1.1191    3.0556    0.0000 C   0  0
    1.0589    2.9136    0.0000 O   0  0
    1.6461    2.3341    0.0000 C   0  0
    1.4355    1.5388    0.0000 C   0  0
    2.0218    0.9596    0.0000 C   0  0
    2.8183    1.1782    0.0000 N   0  0
    3.0251    1.9812    0.0000 C   0  0
    2.4372    2.5570    0.0000 C   0  0
   -4.2708   -0.0292    0.0000 O   0  0
  7  8  1  0
  8  9  1  0
  9 10  1  0
  7 11  1  0
 11 12  1  0
 11 13  2  0
  8 14  1  0
 14 15  2  0
 14 16  2  0
 14 17  1  0
 17 18  2  0
 18 19  1  0
 19 20  2  0
 20 21  1  0
 21 22  2  0
 22 17  1  0
 20 23  1  0
 23 24  1  0
 24 25  2  0
 25 26  1  0
 26 27  2  0
 27 28  1  0
 28 29  2  0
 29 24  1  0
  1  2  1  0
  2  3  1  0
  3  6  1  0
  5  4  1  0
  4  1  1  0
  5  6  1  0
  5 10  1  0
  6  7  1  0
 12 30  1  0
M  END
>  <ID_NEW>
CPDMM2131

>  <pIC50>
7.6575773191777925

$$$$

  SciTegic12180812542D

 35 38  0  0  0  0            999 V2000
   -2.2333    1.7583    0.0000 S   0  0
   -2.9417    2.1750    0.0000 N   0  0
   -3.6750    1.7750    0.0000 C   0  0
   -1.5167    1.3500    0.0000 C   0  0
   -3.6750    0.9500    0.0000 C   0  0
   -4.3917    2.1875    0.0000 C   0  0
   -2.9417    3.0167    0.0000 C   0  0
   -1.8167    2.4833    0.0000 O   0  0
   -2.6375    1.0542    0.0000 O   0  0
   -0.7958    0.1000    0.0000 N   0  0
   -0.0708    0.5083    0.0000 C   0  0
   -1.5167    0.5167    0.0000 C   0  0
    3.5042    2.5875    0.0000 C   0  0
   -4.3917    3.0042    0.0000 C   0  0
   -2.9417    0.5333    0.0000 O   0  0
   -0.8042    1.7583    0.0000 C   0  0
   -3.6750    3.4208    0.0000 C   0  0
   -4.3833    0.5333    0.0000 N   0  0
    0.6417    0.0917    0.0000 O   0  0
    2.7750    2.9917    0.0000 O   0  0
    3.5042    1.7583    0.0000 C   0  0
    1.3625    0.5000    0.0000 C   0  0
   -0.0750    1.3500    0.0000 C   0  0
    2.7833    1.3583    0.0000 C   0  0
    4.2125    3.0167    0.0000 O   0  0
   -4.3833   -0.2875    0.0000 O   0  0
    1.3625    1.3500    0.0000 C   0  0
    2.0708    0.0917    0.0000 C   0  0
    2.7833    0.5167    0.0000 C   0  0
    2.0792    1.7583    0.0000 C   0  0
   -5.1000    1.7750    0.0000 C   0  0
   -5.1125    3.4208    0.0000 C   0  0
    4.2375    3.8333    0.0000 C   0  0
   -5.8250    2.1875    0.0000 C   0  0
   -5.8333    3.0167    0.0000 C   0  0
 11 23  1  0
 12  4  2  0
 13 21  1  0
 14 17  1  0
 15  5  2  0
 16  4  1  0
 17  7  1  0
 18  5  1  0
 19 11  1  0
 20 13  2  0
 21 24  1  0
 22 19  1  0
 23 16  2  0
 24 30  1  0
 25 13  1  0
 26 18  1  0
 27 22  1  0
 28 22  2  0
 29 28  1  0
 30 27  2  0
 31  6  2  0
 32 14  2  0
 33 25  1  0
 34 31  1  0
 35 32  1  0
 14  6  1  0
 10 11  2  0
 35 34  2  0
 29 24  2  0
  2  1  1  0
  3  2  1  0
  4  1  1  0
  5  3  1  0
  6  3  1  0
  7  2  1  0
  8  1  2  0
  9  1  2  0
 10 12  1  0
M  END
>  <ID_NEW>
CPDMM2132

>  <pIC50>
7.6575773191777925

$$$$

  SciTegic12180813012D

 36 39  0  0  0  0            999 V2000
   -5.9833    1.7833    0.0000 S   0  0
   -6.7292    1.7708    0.0000 N   0  0
   -7.0792    1.1333    0.0000 C   0  0
   -7.8292    1.1208    0.0000 C   0  0
   -6.7125    0.4833    0.0000 C   0  0
   -0.7375   -0.7000    0.0000 C   0  0
   -8.2167    1.7458    0.0000 C   0  0
   -7.1042    2.4000    0.0000 C   0  0
   -5.2500    1.7958    0.0000 C   0  0
   -5.9958    2.5083    0.0000 O   0  0
   -5.9833    1.0375    0.0000 O   0  0
   -8.1792    0.4833    0.0000 C   0  0
   -7.8542    2.3917    0.0000 C   0  0
   -1.4833   -0.7125    0.0000 O   0  0
   -5.9833    0.5000    0.0000 O   0  0
   -8.9542    1.7250    0.0000 C   0  0
   -7.0750   -0.1417    0.0000 N   0  0
   -4.8917    2.4333    0.0000 C   0  0
   -4.8708    1.1583    0.0000 C   0  0
   -3.0250    1.8333    0.0000 O   0  0
   -0.7250   -1.4417    0.0000 F   0  0
   -0.7500    0.0458    0.0000 F   0  0
    0.0042   -0.6792    0.0000 F   0  0
   -9.3042    1.0958    0.0000 C   0  0
   -1.8750   -0.0667    0.0000 C   0  0
   -3.7625    1.8125    0.0000 C   0  0
   -2.6458    1.2000    0.0000 C   0  0
   -8.9167    0.4708    0.0000 C   0  0
   -4.1333    1.1708    0.0000 C   0  0
   -4.1542    2.4458    0.0000 C   0  0
   -6.7167   -0.7875    0.0000 O   0  0
   -3.0083    0.5500    0.0000 C   0  0
   -1.9083    1.2083    0.0000 C   0  0
   -2.6208   -0.0792    0.0000 C   0  0
   -1.5208    0.5750    0.0000 C   0  0
  -10.0333    1.0833    0.0000 O   0  0
  2  1  1  0
  3  2  1  0
  4  3  1  0
  5  3  1  0
  6 14  1  0
  7 13  1  0
  8  2  1  0
  9  1  1  0
 10  1  2  0
 11  1  2  0
 12  4  2  0
 13  8  1  0
 14 25  1  0
 15  5  2  0
 16  7  2  0
 17  5  1  0
 18  9  1  0
 19  9  2  0
 20 26  1  0
 21  6  1  0
 22  6  1  0
 23  6  1  0
 24 16  1  0
 25 35  1  0
 26 30  1  0
 27 20  1  0
 28 12  1  0
 29 19  1  0
 30 18  2  0
 31 17  1  0
 32 27  2  0
 33 27  1  0
 34 32  1  0
 35 33  2  0
 36 24  1  0
 26 29  2  0
  7  4  1  0
 24 28  2  0
 25 34  2  0
M  END
>  <ID_NEW>
CPDMM2133

>  <pIC50>
7.6575773191777925

$$$$

  -MTS-   10172316422D 0   0.00000     0.00000     0

 26 29  0  0  1  0  0  0  0  0999 V2000
   -5.9870    1.7960    0.0000 S   0  0  0  0  0  0  0  0  0  0  0  0
   -6.7170    1.7870    0.0000 N   0  0  0  0  0  0  0  0  0  0  0  0
   -7.0920    1.1460    0.0000 C   0  0  1  0  0  0  0  0  0  0  0  0
   -5.2460    1.8080    0.0000 C   0  0  0  0  0  0  0  0  0  0  0  0
   -6.7120    0.5080    0.0000 C   0  0  0  0  0  0  0  0  0  0  0  0
   -7.8290    1.1460    0.0000 C   0  0  0  0  0  0  0  0  0  0  0  0
   -7.0870    2.4250    0.0000 C   0  0  0  0  0  0  0  0  0  0  0  0
   -5.9870    1.0580    0.0000 O   0  0  0  0  0  0  0  0  0  0  0  0
   -5.9870    2.5330    0.0000 O   0  0  0  0  0  0  0  0  0  0  0  0
   -4.8750    1.1710    0.0000 C   0  0  0  0  0  0  0  0  0  0  0  0
   -4.1250    1.1710    0.0000 C   0  0  0  0  0  0  0  0  0  0  0  0
   -3.7580    1.8080    0.0000 C   0  0  0  0  0  0  0  0  0  0  0  0
   -8.2040    1.7710    0.0000 C   0  0  0  0  0  0  0  0  0  0  0  0
   -5.9830    0.5120    0.0000 O   0  0  0  0  0  0  0  0  0  0  0  0
   -3.0250    1.6620    0.0000 O   0  0  0  0  0  0  0  0  0  0  0  0
   -4.8710    2.4460    0.0000 C   0  0  0  0  0  0  0  0  0  0  0  0
   -7.8420    2.4210    0.0000 C   0  0  0  0  0  0  0  0  0  0  0  0
   -7.0790   -0.1250    0.0000 N   0  0  0  0  0  0  0  0  0  0  0  0
   -4.1250    2.4540    0.0000 C   0  0  0  0  0  0  0  0  0  0  0  0
   -2.9330    0.9330    0.0000 C   0  0  0  0  0  0  0  0  0  0  0  0
   -6.7120   -0.7540    0.0000 O   0  0  0  0  0  0  0  0  0  0  0  0
   -8.1920    0.5080    0.0000 C   0  0  0  0  0  0  0  0  0  0  0  0
   -3.6210    0.6210    0.0000 C   0  0  0  0  0  0  0  0  0  0  0  0
   -8.9460    1.7580    0.0000 C   0  0  0  0  0  0  0  0  0  0  0  0
   -8.9170    0.5000    0.0000 C   0  0  0  0  0  0  0  0  0  0  0  0
   -9.3000    1.1330    0.0000 C   0  0  0  0  0  0  0  0  0  0  0  0
  2  1  1  0  0  0  0
  3  2  1  0  0  0  0
  4  1  1  0  0  0  0
  3  5  1  1  0  0  0
  6  3  1  0  0  0  0
  7  2  1  0  0  0  0
  8  1  2  0  0  0  0
  9  1  2  0  0  0  0
 10  4  1  0  0  0  0
 11 10  2  0  0  0  0
 12 19  2  0  0  0  0
 13 17  1  0  0  0  0
 14  5  2  0  0  0  0
 15 12  1  0  0  0  0
 16  4  2  0  0  0  0
 17  7  1  0  0  0  0
 18  5  1  0  0  0  0
 19 16  1  0  0  0  0
 20 23  1  0  0  0  0
 21 18  1  0  0  0  0
 22  6  2  0  0  0  0
 23 11  1  0  0  0  0
 24 13  2  0  0  0  0
 25 22  1  0  0  0  0
 26 24  1  0  0  0  0
 13  6  1  0  0  0  0
 12 11  1  0  0  0  0
 15 20  1  0  0  0  0
 26 25  2  0  0  0  0
M  END
>  <ID_NEW>
CPDMM2134

>  <pIC50>
7.6477788796503186

$$$$

  SciTegic12180813012D

 31 34  0  0  0  0            999 V2000
   -5.9833    1.7833    0.0000 S   0  0
   -6.7292    1.7708    0.0000 N   0  0
   -7.0792    1.1333    0.0000 C   0  0
   -7.8292    1.1208    0.0000 C   0  0
   -6.7125    0.4833    0.0000 C   0  0
   -8.2167    1.7458    0.0000 C   0  0
   -7.1042    2.4000    0.0000 C   0  0
   -5.2500    1.7958    0.0000 C   0  0
   -5.9958    2.5208    0.0000 O   0  0
   -5.9833    1.0500    0.0000 O   0  0
   -8.1792    0.4833    0.0000 C   0  0
   -7.8542    2.3917    0.0000 C   0  0
   -5.9833    0.5000    0.0000 O   0  0
   -3.7500    1.8250    0.0000 C   0  0
   -8.9542    1.7250    0.0000 C   0  0
   -3.0125    1.8375    0.0000 C   0  0
   -7.0750   -0.1417    0.0000 N   0  0
   -4.8583    1.1583    0.0000 C   0  0
   -4.8958    2.4458    0.0000 C   0  0
   -4.1083    1.1833    0.0000 C   0  0
   -4.1458    2.4625    0.0000 C   0  0
   -2.6625    2.5000    0.0000 C   0  0
   -2.6333    1.2125    0.0000 C   0  0
   -9.3042    1.0958    0.0000 C   0  0
   -8.9167    0.4708    0.0000 C   0  0
   -1.5333    1.8833    0.0000 C   0  0
   -1.9125    2.5208    0.0000 C   0  0
   -1.8833    1.2375    0.0000 C   0  0
   -0.7833    1.9083    0.0000 Cl  0  0
   -6.7167   -0.7875    0.0000 O   0  0
  -10.0333    1.0833    0.0000 O   0  0
  2  1  1  0
  3  2  1  0
  4  3  1  0
  5  3  1  0
  6 12  1  0
  7  2  1  0
  8  1  1  0
  9  1  2  0
 10  1  2  0
 11  4  2  0
 12  7  1  0
 13  5  2  0
 14 20  2  0
 15  6  2  0
 16 14  1  0
 17  5  1  0
 18  8  2  0
 19  8  1  0
 20 18  1  0
 21 19  2  0
 22 16  1  0
 23 16  2  0
 24 15  1  0
 25 11  1  0
 26 27  1  0
 27 22  2  0
 28 23  1  0
 29 26  1  0
 30 17  1  0
 31 24  1  0
 21 14  1  0
  6  4  1  0
 24 25  2  0
 26 28  2  0
M  END
>  <ID_NEW>
CPDMM2135

>  <pIC50>
7.638272163982406

$$$$

  -MTS-   10172316422D 0   0.00000     0.00000     0

 31 34  0  0  1  0  0  0  0  0999 V2000
   -5.8310    3.4040    0.0000 C   0  0  0  0  0  0  0  0  0  0  0  0
   -5.8320    2.5770    0.0000 C   0  0  0  0  0  0  0  0  0  0  0  0
   -5.1170    2.1640    0.0000 C   0  0  0  0  0  0  0  0  0  0  0  0
   -5.1190    3.8170    0.0000 C   0  0  0  0  0  0  0  0  0  0  0  0
   -4.4030    3.4080    0.0000 C   0  0  0  0  0  0  0  0  0  0  0  0
   -4.4000    2.5750    0.0000 C   0  0  0  0  0  0  0  0  0  0  0  0
   -3.6810    2.1630    0.0000 C   0  0  1  0  0  0  0  0  0  0  0  0
   -2.9600    2.5810    0.0000 N   0  0  0  0  0  0  0  0  0  0  0  0
   -2.9640    3.4140    0.0000 C   0  0  0  0  0  0  0  0  0  0  0  0
   -3.6880    3.8300    0.0000 C   0  0  0  0  0  0  0  0  0  0  0  0
   -3.6780    1.3380    0.0000 C   0  0  0  0  0  0  0  0  0  0  0  0
   -2.9610    0.9240    0.0000 O   0  0  0  0  0  0  0  0  0  0  0  0
   -2.2450    2.1700    0.0000 S   0  0  0  0  0  0  0  0  0  0  0  0
   -2.9620    1.7620    0.0000 O   0  0  0  0  0  0  0  0  0  0  0  0
   -1.8370    1.4580    0.0000 O   0  0  0  0  0  0  0  0  0  0  0  0
   -1.4500    2.3870    0.0000 C   0  0  0  0  0  0  0  0  0  0  0  0
   -0.8650    1.8050    0.0000 C   0  0  0  0  0  0  0  0  0  0  0  0
   -0.0710    2.0220    0.0000 C   0  0  0  0  0  0  0  0  0  0  0  0
    0.1380    2.8200    0.0000 C   0  0  0  0  0  0  0  0  0  0  0  0
   -0.4520    3.4000    0.0000 C   0  0  0  0  0  0  0  0  0  0  0  0
   -1.2440    3.1810    0.0000 C   0  0  0  0  0  0  0  0  0  0  0  0
    0.9340    3.0390    0.0000 O   0  0  0  0  0  0  0  0  0  0  0  0
    1.5210    2.4590    0.0000 C   0  0  0  0  0  0  0  0  0  0  0  0
    1.3100    1.6640    0.0000 C   0  0  0  0  0  0  0  0  0  0  0  0
    1.8970    1.0850    0.0000 C   0  0  0  0  0  0  0  0  0  0  0  0
    2.6930    1.3030    0.0000 C   0  0  0  0  0  0  0  0  0  0  0  0
    2.9000    2.1060    0.0000 C   0  0  0  0  0  0  0  0  0  0  0  0
    2.3120    2.6820    0.0000 C   0  0  0  0  0  0  0  0  0  0  0  0
    3.2750    0.7210    0.0000 Cl  0  0  0  0  0  0  0  0  0  0  0  0
   -4.3920    0.9250    0.0000 N   0  0  0  0  0  0  0  0  0  0  0  0
   -4.4000    0.1040    0.0000 O   0  0  0  0  0  0  0  0  0  0  0  0
  7  8  1  0  0  0  0
  8  9  1  0  0  0  0
  9 10  1  0  0  0  0
  7 11  1  1  0  0  0
 11 12  2  0  0  0  0
  8 13  1  0  0  0  0
 13 14  2  0  0  0  0
 13 15  2  0  0  0  0
 13 16  1  0  0  0  0
 16 17  2  0  0  0  0
 17 18  1  0  0  0  0
 18 19  2  0  0  0  0
 19 20  1  0  0  0  0
 20 21  2  0  0  0  0
 21 16  1  0  0  0  0
 19 22  1  0  0  0  0
 22 23  1  0  0  0  0
 23 24  2  0  0  0  0
 24 25  1  0  0  0  0
 25 26  2  0  0  0  0
 26 27  1  0  0  0  0
 27 28  2  0  0  0  0
 28 23  1  0  0  0  0
  1  2  2  0  0  0  0
  2  3  1  0  0  0  0
  3  6  2  0  0  0  0
  5  4  2  0  0  0  0
  4  1  1  0  0  0  0
  5  6  1  0  0  0  0
  5 10  1  0  0  0  0
  6  7  1  0  0  0  0
 26 29  1  0  0  0  0
 11 30  1  0  0  0  0
 30 31  1  0  0  0  0
M  END
>  <ID_NEW>
CPDMM2136

>  <pIC50>
7.629818655252876

$$$$

  SciTegic12180813012D

 31 35  0  0  0  0            999 V2000
   -5.9750    1.7958    0.0000 S   0  0
   -6.7042    1.7833    0.0000 N   0  0
   -7.0625    1.1458    0.0000 C   0  0
   -4.0833    1.2250    0.0000 C   0  0
   -5.2208    1.8208    0.0000 C   0  0
   -7.8125    1.1375    0.0000 C   0  0
   -6.6917    0.5083    0.0000 C   0  0
   -2.9958    1.7583    0.0000 O   0  0
   -3.7333    1.8750    0.0000 C   0  0
   -3.5625    0.6875    0.0000 C   0  0
   -4.8333    1.1958    0.0000 C   0  0
   -2.8875    1.0208    0.0000 C   0  0
   -8.1917    1.7625    0.0000 C   0  0
   -7.0792    2.4208    0.0000 C   0  0
   -5.9458    1.0583    0.0000 O   0  0
   -5.9833    2.5458    0.0000 O   0  0
   -8.1583    0.4958    0.0000 C   0  0
   -7.8292    2.4083    0.0000 C   0  0
   -5.9667    0.5208    0.0000 O   0  0
   -8.9292    1.7458    0.0000 C   0  0
   -4.8708    2.4833    0.0000 C   0  0
   -4.1208    2.5083    0.0000 C   0  0
   -7.0542   -0.1250    0.0000 N   0  0
   -9.2792    1.1208    0.0000 C   0  0
   -8.8917    0.4833    0.0000 C   0  0
   -6.7000   -0.7667    0.0000 O   0  0
  -10.0167    1.1000    0.0000 O   0  0
   -3.6083   -0.0417    0.0000 C   0  0
   -2.2708    0.6083    0.0000 C   0  0
   -2.9958   -0.4542    0.0000 C   0  0
   -2.3208   -0.1292    0.0000 C   0  0
  2  1  1  0
  3  2  1  0
  4 11  1  0
  5  1  1  0
  6  3  1  0
  7  3  1  0
  8  9  1  0
  9 22  1  0
 10  4  1  0
 11  5  2  0
 12 10  2  0
 13 18  1  0
 14  2  1  0
 15  1  2  0
 16  1  2  0
 17  6  2  0
 18 14  1  0
 19  7  2  0
 20 13  2  0
 21  5  1  0
 22 21  2  0
 23  7  1  0
 24 20  1  0
 25 17  1  0
 26 23  1  0
 27 24  1  0
 28 10  1  0
 29 12  1  0
 30 28  2  0
 31 30  1  0
 13  6  1  0
  9  4  2  0
 24 25  2  0
  8 12  1  0
 29 31  2  0
M  END
>  <ID_NEW>
CPDMM2137

>  <pIC50>
7.628932137728263

$$$$

  SciTegic12180812542D

 32 35  0  0  0  0            999 V2000
    3.4569   -4.0292    0.0000 C   0  0
    3.4557   -4.7815    0.0000 C   0  0
    4.1080   -5.1569    0.0000 C   0  0
    4.1062   -3.6539    0.0000 C   0  0
    4.7550   -4.0255    0.0000 C   0  0
    4.7584   -4.7836    0.0000 C   0  0
    5.4109   -5.1574    0.0000 C   0  0
    6.0688   -4.7777    0.0000 N   0  0
    6.0654   -4.0196    0.0000 C   0  0
    5.4083   -3.6412    0.0000 C   0  0
    5.4132   -5.9074    0.0000 C   0  0
    4.7665   -6.2843    0.0000 O   0  0
    6.0662   -6.2805    0.0000 N   0  0
    6.0685   -7.0304    0.0000 O   0  0
    6.7177   -5.1508    0.0000 S   0  0
    6.7199   -5.9007    0.0000 O   0  0
    7.3644   -4.7738    0.0000 C   0  0
    6.1901   -5.6815    0.0000 O   0  0
    8.0136   -5.1500    0.0000 C   0  0
    8.6597   -4.7737    0.0000 C   0  0
    8.6579   -4.0229    0.0000 C   0  0
    8.0040   -3.6500    0.0000 C   0  0
    7.3607   -4.0286    0.0000 C   0  0
    9.3047   -3.6445    0.0000 C   0  0
    9.9544   -4.0183    0.0000 C   0  0
   10.6043   -3.6411    0.0000 C   0  0
   10.6014   -2.8902    0.0000 C   0  0
    9.9469   -2.5183    0.0000 C   0  0
    9.3000   -2.8979    0.0000 C   0  0
   11.2470   -2.5114    0.0000 Cl  0  0
    4.1076   -5.9095    0.0000 F   0  0
    4.1048   -2.9062    0.0000 C   0  0
 13 14  1  0
  4  1  1  0
  8 15  1  0
  5 10  1  0
 15 16  2  0
  6  7  1  0
 15 17  1  0
  7  8  1  0
 15 18  2  0
  8  9  1  0
 17 19  2  0
  9 10  1  0
 19 20  1  0
  5  6  1  0
 20 21  2  0
 21 22  1  0
 22 23  2  0
 23 17  1  0
  2  3  1  0
 24 25  2  0
  7 11  1  0
 25 26  1  0
  3  6  2  0
 26 27  2  0
 11 12  2  0
 27 28  1  0
  1  2  2  0
 28 29  2  0
 29 24  1  0
 21 24  1  0
 11 13  1  0
 27 30  1  0
  3 31  1  0
  5  4  2  0
  4 32  1  0
M  END
>  <ID_NEW>
CPDMM2138

>  <pIC50>
7.619788758288393

$$$$

  -MTS-   10172316422D 0   0.00000     0.00000     0

 32 35  0  0  1  0  0  0  0  0999 V2000
   -5.9960    1.7830    0.0000 S   0  0  0  0  0  0  0  0  0  0  0  0
   -6.7330    1.7750    0.0000 N   0  0  0  0  0  0  0  0  0  0  0  0
   -7.1040    1.1370    0.0000 C   0  0  1  0  0  0  0  0  0  0  0  0
   -6.7290    0.5000    0.0000 C   0  0  0  0  0  0  0  0  0  0  0  0
   -7.8460    1.1330    0.0000 C   0  0  0  0  0  0  0  0  0  0  0  0
   -7.1040    2.4120    0.0000 C   0  0  0  0  0  0  0  0  0  0  0  0
   -5.2580    1.7830    0.0000 C   0  0  0  0  0  0  0  0  0  0  0  0
   -6.0040    2.5330    0.0000 O   0  0  0  0  0  0  0  0  0  0  0  0
   -5.9830    1.0580    0.0000 O   0  0  0  0  0  0  0  0  0  0  0  0
   -8.2290    1.7580    0.0000 C   0  0  0  0  0  0  0  0  0  0  0  0
   -6.0000    0.5000    0.0000 O   0  0  0  0  0  0  0  0  0  0  0  0
   -3.0210    1.8500    0.0000 C   0  0  0  0  0  0  0  0  0  0  0  0
   -3.7710    1.8330    0.0000 C   0  0  0  0  0  0  0  0  0  0  0  0
   -1.5330    1.8830    0.0000 C   0  0  0  0  0  0  0  0  0  0  0  0
   -7.8540    2.4080    0.0000 C   0  0  0  0  0  0  0  0  0  0  0  0
   -7.0960   -0.1370    0.0000 N   0  0  0  0  0  0  0  0  0  0  0  0
   -4.9080    2.4460    0.0000 C   0  0  0  0  0  0  0  0  0  0  0  0
   -4.8830    1.1710    0.0000 C   0  0  0  0  0  0  0  0  0  0  0  0
   -2.6370    1.2210    0.0000 C   0  0  0  0  0  0  0  0  0  0  0  0
   -4.1580    2.4620    0.0000 C   0  0  0  0  0  0  0  0  0  0  0  0
   -2.6710    2.5000    0.0000 C   0  0  0  0  0  0  0  0  0  0  0  0
   -4.1210    1.1960    0.0000 C   0  0  0  0  0  0  0  0  0  0  0  0
   -1.8960    1.2460    0.0000 C   0  0  0  0  0  0  0  0  0  0  0  0
   -1.9370    2.5250    0.0000 C   0  0  0  0  0  0  0  0  0  0  0  0
   -0.7960    1.9000    0.0000 C   0  0  0  0  0  0  0  0  0  0  0  0
   -6.7290   -0.7670    0.0000 O   0  0  0  0  0  0  0  0  0  0  0  0
   -8.2120    0.4960    0.0000 C   0  0  0  0  0  0  0  0  0  0  0  0
   -8.9670    1.7460    0.0000 C   0  0  0  0  0  0  0  0  0  0  0  0
   -0.4330    2.5580    0.0000 C   0  0  0  0  0  0  0  0  0  0  0  0
   -0.4080    1.2830    0.0000 C   0  0  0  0  0  0  0  0  0  0  0  0
   -8.9420    0.4870    0.0000 C   0  0  0  0  0  0  0  0  0  0  0  0
   -9.3170    1.1210    0.0000 C   0  0  0  0  0  0  0  0  0  0  0  0
  2  1  1  0  0  0  0
  3  2  1  0  0  0  0
  3  4  1  1  0  0  0
  5  3  1  0  0  0  0
  6  2  1  0  0  0  0
  7  1  1  0  0  0  0
  8  1  2  0  0  0  0
  9  1  2  0  0  0  0
 10 15  1  0  0  0  0
 11  4  2  0  0  0  0
 12 13  1  0  0  0  0
 13 20  1  0  0  0  0
 14 24  1  0  0  0  0
 15  6  1  0  0  0  0
 16  4  1  0  0  0  0
 17  7  1  0  0  0  0
 18  7  2  0  0  0  0
 19 12  2  0  0  0  0
 20 17  2  0  0  0  0
 21 12  1  0  0  0  0
 22 18  1  0  0  0  0
 23 19  1  0  0  0  0
 24 21  2  0  0  0  0
 25 14  1  0  0  0  0
 26 16  1  0  0  0  0
 27  5  2  0  0  0  0
 28 10  2  0  0  0  0
 29 25  1  0  0  0  0
 30 25  1  0  0  0  0
 31 27  1  0  0  0  0
 32 28  1  0  0  0  0
 13 22  2  0  0  0  0
 10  5  1  0  0  0  0
 32 31  2  0  0  0  0
 14 23  2  0  0  0  0
M  END
>  <ID_NEW>
CPDMM2139

>  <pIC50>
7.619788758288393

$$$$

  SciTegic12180813012D

 32 35  0  0  0  0            999 V2000
   -6.0000    1.7875    0.0000 S   0  0
   -6.7417    1.7833    0.0000 N   0  0
   -7.1167    1.1458    0.0000 C   0  0
   -7.8542    1.1458    0.0000 C   0  0
   -6.7417    0.4958    0.0000 C   0  0
   -8.2292    1.7833    0.0000 C   0  0
   -7.1042    2.4208    0.0000 C   0  0
   -5.2708    1.7875    0.0000 C   0  0
   -6.0000    2.5208    0.0000 O   0  0
   -6.0000    1.0500    0.0000 O   0  0
   -8.2167    0.5000    0.0000 C   0  0
   -7.8542    2.4208    0.0000 C   0  0
   -6.0042    0.5125    0.0000 O   0  0
   -3.7708    1.7958    0.0000 C   0  0
   -8.9667    1.7833    0.0000 C   0  0
   -3.0333    1.8000    0.0000 C   0  0
   -7.1042   -0.1250    0.0000 N   0  0
   -4.8833    1.1458    0.0000 C   0  0
   -4.8958    2.4375    0.0000 C   0  0
   -4.1333    1.1583    0.0000 C   0  0
   -4.1458    2.4375    0.0000 C   0  0
   -2.6708    2.4583    0.0000 C   0  0
   -2.6500    1.1708    0.0000 C   0  0
   -9.3292    1.1458    0.0000 C   0  0
   -8.9542    0.5000    0.0000 C   0  0
   -1.5375    1.8208    0.0000 C   0  0
   -1.9208    2.4708    0.0000 C   0  0
   -1.9125    1.1833    0.0000 C   0  0
   -0.7875    1.8333    0.0000 Cl  0  0
   -6.7500   -0.7667    0.0000 O   0  0
  -10.0667    1.1375    0.0000 O   0  0
  -10.4250    0.4958    0.0000 C   0  0
  2  1  1  0
  3  2  1  0
  4  3  1  0
  5  3  1  0
  6 12  1  0
  7  2  1  0
  8  1  1  0
  9  1  2  0
 10  1  2  0
 11  4  2  0
 12  7  1  0
 13  5  2  0
 14 20  2  0
 15  6  2  0
 16 14  1  0
 17  5  1  0
 18  8  2  0
 19  8  1  0
 20 18  1  0
 21 19  2  0
 22 16  1  0
 23 16  2  0
 24 15  1  0
 25 11  1  0
 26 27  1  0
 27 22  2  0
 28 23  1  0
 29 26  1  0
 30 17  1  0
 31 24  1  0
 32 31  1  0
 21 14  1  0
  6  4  1  0
 24 25  2  0
 26 28  2  0
M  END
>  <ID_NEW>
CPDMM2140

>  <pIC50>
7.619788758288393

$$$$

  SciTegic12180812562D

 36 39  0  0  0  0            999 V2000
   -2.3306    2.1583    0.0000 C   0  0
   -2.9774    1.8869    0.0000 S   0  0
   -2.4225    1.4687    0.0000 O   0  0
   -3.3970    1.3361    0.0000 O   0  0
   -1.7811    1.7295    0.0000 C   0  0
   -1.1339    2.0002    0.0000 C   0  0
   -1.0489    2.6901    0.0000 C   0  0
   -1.6050    3.1123    0.0000 C   0  0
   -2.2424    2.8430    0.0000 C   0  0
   -5.8334    3.4041    0.0000 C   0  0
   -5.8334    2.7041    0.0000 C   0  0
   -5.2412    2.3625    0.0000 C   0  0
   -5.2412    3.7541    0.0000 C   0  0
   -4.6366    3.4041    0.0000 C   0  0
   -4.0947    3.8317    0.0000 C   0  0
   -3.4170    3.6754    0.0000 C   0  0
   -3.1193    3.0587    0.0000 C   0  0
   -4.6292    2.7041    0.0000 C   0  0
   -3.4194    2.4320    0.0000 N   0  0
   -4.0887    2.2736    0.0000 C   0  0
   -4.2444    1.5918    0.0000 C   0  0
   -4.9109    1.3886    0.0000 N   0  0
   -3.7296    1.1195    0.0000 O   0  0
   -0.4069    2.9596    0.0000 O   0  0
    0.1473    2.5389    0.0000 C   0  0
    0.0605    1.8502    0.0000 C   0  0
    0.6154    1.4296    0.0000 C   0  0
    1.2566    1.6990    0.0000 C   0  0
    1.3376    2.3931    0.0000 C   0  0
    0.7836    2.8107    0.0000 C   0  0
    1.8096    1.2786    0.0000 O   0  0
   -5.2584    0.7917    0.0000 O   0  0
    2.4512    1.5493    0.0000 C   0  0
    3.0124    1.1289    0.0000 F   0  0
    2.5398    2.2404    0.0000 F   0  0
    2.5475    0.8594    0.0000 F   0  0
 28 31  1  0
 22 32  1  0
  1  2  1  0
  2  3  2  0
  2  4  2  0
  1  5  2  0
  5  6  1  0
  6  7  2  0
  7  8  1  0
  8  9  2  0
  9  1  1  0
 10 11  1  0
 10 13  1  0
 11 12  1  0
 12 18  1  0
 14 13  1  0
 14 15  1  0
 15 16  1  0
 16 17  1  0
 14 18  1  0
 17 19  1  0
 18 20  1  0
 19 20  1  0
 21 22  1  0
 21 23  2  0
 20 21  1  0
 19  2  1  0
  7 24  1  0
 24 25  1  0
 25 26  2  0
 26 27  1  0
 27 28  2  0
 28 29  1  0
 29 30  2  0
 30 25  1  0
 31 33  1  0
 33 34  1  0
 33 35  1  0
 33 36  1  0
M  END
>  <ID_NEW>
CPDMM2141

>  <pIC50>
7.608641397512596

$$$$

  SciTegic12180812482D

 32 35  0  0  0  0            999 V2000
   -0.1045    2.4062    0.0000 C   0  0
    0.4383    1.7834    0.0000 C   0  0
    1.2467    1.9441    0.0000 C   0  0
    1.5123    2.7261    0.0000 C   0  0
    0.9634    3.3477    0.0000 C   0  0
    0.1570    3.1838    0.0000 C   0  0
    2.3212    2.8884    0.0000 C   0  0
    2.8624    2.2656    0.0000 C   0  0
    3.6706    2.4274    0.0000 C   0  0
    3.9352    3.2098    0.0000 C   0  0
    3.3854    3.8306    0.0000 C   0  0
    2.5792    3.6656    0.0000 C   0  0
    4.7438    3.3731    0.0000 Cl  0  0
   -5.8306    3.2250    0.0000 C   0  0
   -5.8318    2.3977    0.0000 C   0  0
   -5.1169    1.9848    0.0000 C   0  0
   -5.1187    3.6378    0.0000 C   0  0
   -4.4034    3.2287    0.0000 C   0  0
   -4.3999    2.3956    0.0000 C   0  0
   -3.6808    1.9843    0.0000 C   0  0
   -2.9604    2.4015    0.0000 N   0  0
   -2.9638    3.2346    0.0000 C   0  0
   -3.6876    3.6505    0.0000 C   0  0
   -3.6785    1.1593    0.0000 C   0  0
   -4.3904    0.7412    0.0000 N   0  0
   -2.9615    0.7450    0.0000 O   0  0
   -2.2448    1.9909    0.0000 S   0  0
   -1.5314    2.4054    0.0000 C   0  0
   -0.8158    1.9948    0.0000 C   0  0
   -2.9625    1.5833    0.0000 O   0  0
   -1.8375    1.2792    0.0000 O   0  0
   -4.3958   -0.0833    0.0000 O   0  0
  1  2  2  0
  2  3  1  0
  3  4  2  0
  4  5  1  0
  5  6  2  0
  6  1  1  0
  4  7  1  0
  7  8  2  0
  8  9  1  0
  9 10  2  0
 10 11  1  0
 11 12  2  0
 12  7  1  0
 10 13  1  0
 14 15  2  0
 15 16  1  0
 16 19  2  0
 18 17  2  0
 17 14  1  0
 18 19  1  0
 18 23  1  0
 19 20  1  0
 20 21  1  0
 21 22  1  0
 22 23  1  0
 20 24  1  0
 24 25  1  0
 24 26  2  0
 21 27  1  0
 27 28  1  0
 28 29  1  0
 29  1  1  0
 27 30  2  0
 27 31  2  0
 25 32  1  0
M  END
>  <ID_NEW>
CPDMM2142

>  <pIC50>
7.602059991327962

$$$$

  -MTS-   10172316422D 0   0.00000     0.00000     0

 32 35  0  0  1  0  0  0  0  0999 V2000
   -3.4010   -0.3210    0.0000 C   0  0  0  0  0  0  0  0  0  0  0  0
   -3.4030   -1.1480    0.0000 C   0  0  0  0  0  0  0  0  0  0  0  0
   -2.6880   -1.5610    0.0000 C   0  0  0  0  0  0  0  0  0  0  0  0
   -2.6900    0.0920    0.0000 C   0  0  0  0  0  0  0  0  0  0  0  0
   -1.9740   -0.3170    0.0000 C   0  0  0  0  0  0  0  0  0  0  0  0
   -1.9750   -1.1460    0.0000 C   0  0  0  0  0  0  0  0  0  0  0  0
   -1.2620   -1.4670    0.0000 C   0  0  1  0  0  0  0  0  0  0  0  0
   -0.5440   -1.1480    0.0000 N   0  0  0  0  0  0  0  0  0  0  0  0
   -0.5430   -0.3190    0.0000 C   0  0  0  0  0  0  0  0  0  0  0  0
   -1.2600    0.0980    0.0000 C   0  0  0  0  0  0  0  0  0  0  0  0
    0.1480   -1.5980    0.0000 S   0  0  0  0  0  0  0  0  0  0  0  0
    0.8580   -2.0080    0.0000 C   0  0  0  0  0  0  0  0  0  0  0  0
   -0.2840   -2.3010    0.0000 O   0  0  0  0  0  0  0  0  0  0  0  0
    0.5830   -0.8970    0.0000 O   0  0  0  0  0  0  0  0  0  0  0  0
    0.8550   -2.8300    0.0000 C   0  0  0  0  0  0  0  0  0  0  0  0
    1.5650   -3.2410    0.0000 N   0  0  0  0  0  0  0  0  0  0  0  0
    2.2770   -2.8300    0.0000 C   0  0  0  0  0  0  0  0  0  0  0  0
    2.2750   -2.0050    0.0000 C   0  0  0  0  0  0  0  0  0  0  0  0
    1.5640   -1.5990    0.0000 C   0  0  0  0  0  0  0  0  0  0  0  0
    2.9920   -3.2420    0.0000 O   0  0  0  0  0  0  0  0  0  0  0  0
    3.7060   -2.8290    0.0000 C   0  0  0  0  0  0  0  0  0  0  0  0
    4.4160   -3.2430    0.0000 C   0  0  0  0  0  0  0  0  0  0  0  0
    5.1300   -2.8310    0.0000 C   0  0  0  0  0  0  0  0  0  0  0  0
    5.1290   -2.0050    0.0000 C   0  0  0  0  0  0  0  0  0  0  0  0
    4.4090   -1.5930    0.0000 C   0  0  0  0  0  0  0  0  0  0  0  0
    3.6990   -2.0080    0.0000 C   0  0  0  0  0  0  0  0  0  0  0  0
    5.8430   -1.5910    0.0000 O   0  0  0  0  0  0  0  0  0  0  0  0
    6.5580   -2.0020    0.0000 C   0  0  0  0  0  0  0  0  0  0  0  0
   -1.2640   -2.2490    0.0000 C   0  0  0  0  0  0  0  0  0  0  0  0
   -1.9430   -2.6380    0.0000 N   0  0  0  0  0  0  0  0  0  0  0  0
   -0.5880   -2.6420    0.0000 O   0  0  0  0  0  0  0  0  0  0  0  0
   -1.9500   -3.4170    0.0000 O   0  0  0  0  0  0  0  0  0  0  0  0
  5  6  1  0  0  0  0
 15 16  1  0  0  0  0
  2  3  1  0  0  0  0
 16 17  2  0  0  0  0
  3  6  2  0  0  0  0
 17 18  1  0  0  0  0
  1  2  2  0  0  0  0
 18 19  2  0  0  0  0
 19 12  1  0  0  0  0
  5  4  2  0  0  0  0
 17 20  1  0  0  0  0
  4  1  1  0  0  0  0
 20 21  1  0  0  0  0
  5 10  1  0  0  0  0
 21 22  2  0  0  0  0
 22 23  1  0  0  0  0
  8 11  1  0  0  0  0
 23 24  2  0  0  0  0
  6  7  1  0  0  0  0
 24 25  1  0  0  0  0
 11 12  1  0  0  0  0
 25 26  2  0  0  0  0
 26 21  1  0  0  0  0
  7  8  1  0  0  0  0
 24 27  1  0  0  0  0
 11 13  2  0  0  0  0
 27 28  1  0  0  0  0
  8  9  1  0  0  0  0
  7 29  1  1  0  0  0
 11 14  2  0  0  0  0
 29 30  1  0  0  0  0
  9 10  1  0  0  0  0
 29 31  2  0  0  0  0
 12 15  2  0  0  0  0
 30 32  1  0  0  0  0
M  END
>  <ID_NEW>
CPDMM2143

>  <pIC50>
7.602059991327962

$$$$

  -MTS-   10172316422D 0   0.00000     0.00000     0

 31 34  0  0  1  0  0  0  0  0999 V2000
   -0.2470   -1.5120    0.0000 C   0  0  0  0  0  0  0  0  0  0  0  0
   -0.2480   -2.3400    0.0000 C   0  0  0  0  0  0  0  0  0  0  0  0
    0.4660   -2.7530    0.0000 C   0  0  0  0  0  0  0  0  0  0  0  0
    0.4650   -1.1000    0.0000 C   0  0  0  0  0  0  0  0  0  0  0  0
    1.1800   -1.5090    0.0000 C   0  0  0  0  0  0  0  0  0  0  0  0
    1.1790   -2.3370    0.0000 C   0  0  0  0  0  0  0  0  0  0  0  0
    1.8920   -2.7500    0.0000 C   0  0  1  0  0  0  0  0  0  0  0  0
    2.6100   -2.3390    0.0000 N   0  0  0  0  0  0  0  0  0  0  0  0
    2.6120   -1.5110    0.0000 C   0  0  0  0  0  0  0  0  0  0  0  0
    1.8940   -1.0930    0.0000 C   0  0  0  0  0  0  0  0  0  0  0  0
    3.3240   -2.7540    0.0000 S   0  0  0  0  0  0  0  0  0  0  0  0
    3.7290   -2.0330    0.0000 O   0  0  0  0  0  0  0  0  0  0  0  0
    2.9040   -3.4620    0.0000 O   0  0  0  0  0  0  0  0  0  0  0  0
    1.8890   -3.5750    0.0000 C   0  0  0  0  0  0  0  0  0  0  0  0
    2.6030   -3.9900    0.0000 O   0  0  0  0  0  0  0  0  0  0  0  0
    4.0350   -3.1710    0.0000 C   0  0  0  0  0  0  0  0  0  0  0  0
    4.0250   -3.9970    0.0000 C   0  0  0  0  0  0  0  0  0  0  0  0
    4.7360   -4.4140    0.0000 C   0  0  0  0  0  0  0  0  0  0  0  0
    5.4540   -4.0060    0.0000 C   0  0  0  0  0  0  0  0  0  0  0  0
    5.4570   -3.1770    0.0000 C   0  0  0  0  0  0  0  0  0  0  0  0
    4.7450   -2.7630    0.0000 C   0  0  0  0  0  0  0  0  0  0  0  0
    6.1670   -4.4220    0.0000 O   0  0  0  0  0  0  0  0  0  0  0  0
    6.8790   -4.0040    0.0000 C   0  0  0  0  0  0  0  0  0  0  0  0
    7.5970   -4.4150    0.0000 C   0  0  0  0  0  0  0  0  0  0  0  0
    8.3090   -3.9980    0.0000 C   0  0  0  0  0  0  0  0  0  0  0  0
    8.3030   -3.1710    0.0000 C   0  0  0  0  0  0  0  0  0  0  0  0
    7.5800   -2.7630    0.0000 C   0  0  0  0  0  0  0  0  0  0  0  0
    6.8710   -3.1830    0.0000 C   0  0  0  0  0  0  0  0  0  0  0  0
    9.0150   -2.7530    0.0000 F   0  0  0  0  0  0  0  0  0  0  0  0
    1.1740   -3.9860    0.0000 N   0  0  0  0  0  0  0  0  0  0  0  0
    1.1710   -4.8110    0.0000 O   0  0  0  0  0  0  0  0  0  0  0  0
  7  8  1  0  0  0  0
  8  9  1  0  0  0  0
 14 15  2  0  0  0  0
  9 10  1  0  0  0  0
 11 16  1  0  0  0  0
  5  6  1  0  0  0  0
 16 17  2  0  0  0  0
  2  3  1  0  0  0  0
 17 18  1  0  0  0  0
  3  6  2  0  0  0  0
 18 19  2  0  0  0  0
  1  2  2  0  0  0  0
 19 20  1  0  0  0  0
  5  4  2  0  0  0  0
 20 21  2  0  0  0  0
 21 16  1  0  0  0  0
 19 22  1  0  0  0  0
  8 11  1  0  0  0  0
 22 23  1  0  0  0  0
  4  1  1  0  0  0  0
 23 24  2  0  0  0  0
 11 12  2  0  0  0  0
 24 25  1  0  0  0  0
  5 10  1  0  0  0  0
 25 26  2  0  0  0  0
 11 13  2  0  0  0  0
 26 27  1  0  0  0  0
  6  7  1  0  0  0  0
 27 28  2  0  0  0  0
 28 23  1  0  0  0  0
  7 14  1  1  0  0  0
 26 29  1  0  0  0  0
 14 30  1  0  0  0  0
 30 31  1  0  0  0  0
M  END
>  <ID_NEW>
CPDMM2144

>  <pIC50>
7.602059991327962

$$$$

  -MTS-   10172316422D 0   0.00000     0.00000     0

 33 36  0  0  0  0  0  0  0  0999 V2000
   -6.0290    1.8080    0.0000 S   0  0  0  0  0  0  0  0  0  0  0  0
   -6.7620    1.8120    0.0000 N   0  0  0  0  0  0  0  0  0  0  0  0
   -7.1370    1.1960    0.0000 C   0  0  1  0  0  0  0  0  0  0  0  0
   -6.7790    0.5620    0.0000 C   0  0  0  0  0  0  0  0  0  0  0  0
   -7.8670    1.2000    0.0000 C   0  0  2  0  0  0  0  0  0  0  0  0
   -7.1170    2.4580    0.0000 C   0  0  0  0  0  0  0  0  0  0  0  0
   -5.2960    1.8080    0.0000 C   0  0  0  0  0  0  0  0  0  0  0  0
   -0.0830    1.7710    0.0000 N   0  0  0  0  0  0  0  0  0  0  0  0
   -6.0290    1.0750    0.0000 O   0  0  0  0  0  0  0  0  0  0  0  0
   -6.0170    2.5460    0.0000 O   0  0  0  0  0  0  0  0  0  0  0  0
   -0.8330    1.7750    0.0000 C   0  0  0  0  0  0  0  0  0  0  0  0
   -6.0540    0.5500    0.0000 O   0  0  0  0  0  0  0  0  0  0  0  0
   -3.8080    1.8080    0.0000 C   0  0  0  0  0  0  0  0  0  0  0  0
   -3.0580    1.8000    0.0000 C   0  0  0  0  0  0  0  0  0  0  0  0
   -8.2210    1.8330    0.0000 C   0  0  2  0  0  0  0  0  0  0  0  0
   -7.1500   -0.0750    0.0000 N   0  0  0  0  0  0  0  0  0  0  0  0
   -7.8460    2.4620    0.0000 C   0  0  0  0  0  0  0  0  0  0  0  0
   -4.9250    1.1710    0.0000 C   0  0  0  0  0  0  0  0  0  0  0  0
   -4.9120    2.4540    0.0000 C   0  0  0  0  0  0  0  0  0  0  0  0
   -4.1750    1.1710    0.0000 C   0  0  0  0  0  0  0  0  0  0  0  0
   -4.1620    2.4460    0.0000 C   0  0  0  0  0  0  0  0  0  0  0  0
   -2.6750    2.4330    0.0000 C   0  0  0  0  0  0  0  0  0  0  0  0
   -2.6960    1.1580    0.0000 C   0  0  0  0  0  0  0  0  0  0  0  0
   -1.5710    1.7830    0.0000 C   0  0  0  0  0  0  0  0  0  0  0  0
   -1.9370    2.4250    0.0000 C   0  0  0  0  0  0  0  0  0  0  0  0
   -1.9460    1.1500    0.0000 C   0  0  0  0  0  0  0  0  0  0  0  0
   -6.7750   -0.6920    0.0000 O   0  0  0  0  0  0  0  0  0  0  0  0
   -8.2420    0.5620    0.0000 C   0  0  0  0  0  0  0  0  0  0  0  0
   -8.9670    1.8330    0.0000 C   0  0  0  0  0  0  0  0  0  0  0  0
   -8.9790    0.5830    0.0000 C   0  0  0  0  0  0  0  0  0  0  0  0
   -9.3540    1.2210    0.0000 C   0  0  0  0  0  0  0  0  0  0  0  0
   -8.7150    2.7030    0.0000 H   0  0  0  0  0  0  0  0  0  0  0  0
   -7.3730    0.3300    0.0000 H   0  0  0  0  0  0  0  0  0  0  0  0
  2  1  1  0  0  0  0
  3  2  1  0  0  0  0
  3  4  1  1  0  0  0
  5  3  1  0  0  0  0
  6  2  1  0  0  0  0
  7  1  1  0  0  0  0
  8 11  3  0  0  0  0
  9  1  2  0  0  0  0
 10  1  2  0  0  0  0
 11 24  1  0  0  0  0
 12  4  2  0  0  0  0
 13 20  2  0  0  0  0
 14 13  1  0  0  0  0
 15 17  1  0  0  0  0
 16  4  1  0  0  0  0
 17  6  1  0  0  0  0
 18  7  2  0  0  0  0
 19  7  1  0  0  0  0
 20 18  1  0  0  0  0
 21 19  2  0  0  0  0
 22 14  1  0  0  0  0
 23 14  2  0  0  0  0
 24 25  1  0  0  0  0
 25 22  2  0  0  0  0
 26 23  1  0  0  0  0
 27 16  1  0  0  0  0
 28  5  1  0  0  0  0
 29 15  1  0  0  0  0
 30 28  1  0  0  0  0
 31 29  1  0  0  0  0
 21 13  1  0  0  0  0
  5 15  1  0  0  0  0
 31 30  1  0  0  0  0
 24 26  2  0  0  0  0
 15 32  1  6  0  0  0
  5 33  1  6  0  0  0
V    3 M1
V    5 M1
V   15 M1
M  END
>  <ID_NEW>
CPDMM2145

>  <pIC50>
7.602059991327962

$$$$

  SciTegic12180813012D

 37 40  0  0  0  0            999 V2000
   -6.0000    1.7875    0.0000 S   0  0
   -6.7417    1.7833    0.0000 N   0  0
   -7.1167    1.1458    0.0000 C   0  0
   -7.8542    1.1458    0.0000 C   0  0
   -6.7417    0.4958    0.0000 C   0  0
   -0.7875   -0.7792    0.0000 C   0  0
   -8.2292    1.7833    0.0000 C   0  0
   -7.1042    2.4208    0.0000 C   0  0
   -5.2708    1.7875    0.0000 C   0  0
   -6.0000    2.5167    0.0000 O   0  0
   -6.0000    1.0458    0.0000 O   0  0
   -8.2167    0.5000    0.0000 C   0  0
   -7.8542    2.4208    0.0000 C   0  0
   -1.5333   -0.7792    0.0000 O   0  0
   -6.0042    0.5125    0.0000 O   0  0
   -8.9667    1.7833    0.0000 C   0  0
   -7.1042   -0.1250    0.0000 N   0  0
   -4.8958    2.4208    0.0000 C   0  0
   -4.8958    1.1583    0.0000 C   0  0
   -3.0458    1.7875    0.0000 O   0  0
   -0.7875   -1.5125    0.0000 F   0  0
   -0.7958   -0.0292    0.0000 F   0  0
   -0.0458   -0.7792    0.0000 F   0  0
   -9.3292    1.1458    0.0000 C   0  0
   -1.9125   -0.1292    0.0000 C   0  0
   -3.7833    1.7875    0.0000 C   0  0
   -2.6625    1.1458    0.0000 C   0  0
   -8.9542    0.5000    0.0000 C   0  0
   -4.1542    1.1583    0.0000 C   0  0
   -4.1583    2.4250    0.0000 C   0  0
   -6.7500   -0.7667    0.0000 O   0  0
   -3.0375    0.5208    0.0000 C   0  0
   -1.9208    1.1583    0.0000 C   0  0
   -2.6583   -0.1292    0.0000 C   0  0
   -1.5500    0.5125    0.0000 C   0  0
  -10.0667    1.1375    0.0000 O   0  0
  -10.4250    0.4958    0.0000 C   0  0
  2  1  1  0
  3  2  1  0
  4  3  1  0
  5  3  1  0
  6 14  1  0
  7 13  1  0
  8  2  1  0
  9  1  1  0
 10  1  2  0
 11  1  2  0
 12  4  2  0
 13  8  1  0
 14 25  1  0
 15  5  2  0
 16  7  2  0
 17  5  1  0
 18  9  1  0
 19  9  2  0
 20 26  1  0
 21  6  1  0
 22  6  1  0
 23  6  1  0
 24 16  1  0
 25 35  1  0
 26 30  1  0
 27 20  1  0
 28 12  1  0
 29 19  1  0
 30 18  2  0
 31 17  1  0
 32 27  2  0
 33 27  1  0
 34 32  1  0
 35 33  2  0
 36 24  1  0
 37 36  1  0
 26 29  2  0
  7  4  1  0
 24 28  2  0
 25 34  2  0
M  END
>  <ID_NEW>
CPDMM2146

>  <pIC50>
7.593543321678571

$$$$

  SciTegic12180812512D

 36 39  0  0  0  0            999 V2000
    4.4443   -3.8524    0.0000 S   0  0
    3.8568   -4.4358    0.0000 O   0  0
    5.1568   -3.4358    0.0000 C   0  0
    4.8526   -4.5649    0.0000 O   0  0
    5.8734   -3.8474    0.0000 C   0  0
    6.5855   -3.4314    0.0000 C   0  0
    6.5813   -2.6052    0.0000 C   0  0
    5.8592   -2.1967    0.0000 C   0  0
    5.1501   -2.6150    0.0000 C   0  0
    3.0153   -3.8510    0.0000 C   0  0
    3.7299   -3.4398    0.0000 N   0  0
    3.7288   -2.6148    0.0000 C   0  0
    3.0132   -2.2010    0.0000 C   0  0
    3.0152   -4.6760    0.0000 C   0  0
    2.3015   -5.0898    0.0000 N   0  0
    3.7305   -5.0899    0.0000 O   0  0
    7.2929   -2.1878    0.0000 O   0  0
    2.3044   -3.4417    0.0000 C   0  0
    2.2987   -2.6203    0.0000 C   0  0
    1.5884   -2.2168    0.0000 C   0  0
    0.8792   -2.6302    0.0000 C   0  0
    0.8849   -3.4516    0.0000 C   0  0
    1.5998   -3.8596    0.0000 C   0  0
    8.0102   -2.5954    0.0000 C   0  0
    8.0112   -3.4178    0.0000 C   0  0
    8.7277   -3.8253    0.0000 C   0  0
    9.4403   -3.4078    0.0000 C   0  0
    9.4319   -2.5786    0.0000 C   0  0
    8.7149   -2.1748    0.0000 C   0  0
   10.1581   -3.8144    0.0000 S   0  0
   10.1649   -4.6394    0.0000 F   0  0
   10.8692   -3.3961    0.0000 F   0  0
    9.5796   -4.4025    0.0000 F   0  0
   10.8667   -4.2250    0.0000 F   0  0
    9.9375   -3.0125    0.0000 F   0  0
    2.2958   -5.9125    0.0000 O   0  0
  1  2  2  0
  1  3  1  0
  1  4  2  0
  3  5  2  0
  5  6  1  0
  6  7  2  0
  7  8  1  0
  8  9  2  0
  9  3  1  0
 19 13  1  0
 18 10  1  0
 10 11  1  0
 11 12  1  0
 12 13  1  0
 10 14  1  0
 14 15  1  0
 14 16  2  0
 11  1  1  0
  7 17  1  0
 18 19  1  0
 18 23  1  0
 19 20  1  0
 20 21  1  0
 21 22  1  0
 22 23  1  0
 17 24  1  0
 24 25  2  0
 25 26  1  0
 26 27  2  0
 27 28  1  0
 28 29  2  0
 29 24  1  0
 27 30  1  0
 30 31  1  0
 30 32  1  0
 30 33  1  0
 30 34  1  0
 30 35  1  0
 15 36  1  0
M  END
>  <ID_NEW>
CPDMM2147

>  <pIC50>
7.587976486958022

$$$$

  SciTegic12180812512D

 35 38  0  0  0  0            999 V2000
    4.3693   -3.8524    0.0000 S   0  0
    3.7818   -4.4358    0.0000 O   0  0
    5.0818   -3.4358    0.0000 C   0  0
    4.7776   -4.5649    0.0000 O   0  0
    5.7984   -3.8474    0.0000 C   0  0
    6.5105   -3.4314    0.0000 C   0  0
    6.5063   -2.6052    0.0000 C   0  0
    5.7842   -2.1967    0.0000 C   0  0
    5.0751   -2.6150    0.0000 C   0  0
    2.9403   -3.8510    0.0000 C   0  0
    3.6549   -3.4398    0.0000 N   0  0
    3.6538   -2.6148    0.0000 C   0  0
    2.9382   -2.2010    0.0000 C   0  0
    2.9402   -4.6760    0.0000 C   0  0
    2.2265   -5.0898    0.0000 N   0  0
    3.6555   -5.0899    0.0000 O   0  0
    7.2179   -2.1878    0.0000 O   0  0
    2.2293   -3.4417    0.0000 C   0  0
    2.2237   -2.6203    0.0000 C   0  0
    1.4408   -2.3717    0.0000 O   0  0
    0.9624   -3.0396    0.0000 C   0  0
    1.4498   -3.7008    0.0000 C   0  0
    7.9352   -2.5954    0.0000 C   0  0
    7.9363   -3.4178    0.0000 C   0  0
    8.6527   -3.8253    0.0000 C   0  0
    9.3653   -3.4078    0.0000 C   0  0
    9.3569   -2.5786    0.0000 C   0  0
    8.6399   -2.1748    0.0000 C   0  0
   10.0831   -3.8144    0.0000 S   0  0
   10.0899   -4.6394    0.0000 F   0  0
   10.7942   -3.3961    0.0000 F   0  0
   10.7917   -4.2250    0.0000 F   0  0
    9.8625   -3.0125    0.0000 F   0  0
    9.3625   -4.2208    0.0000 F   0  0
    2.2208   -5.9125    0.0000 O   0  0
  1  2  2  0
  1  3  1  0
  1  4  2  0
  3  5  2  0
  5  6  1  0
  6  7  2  0
  7  8  1  0
  8  9  2  0
  9  3  1  0
 19 13  1  0
 18 10  1  0
 10 11  1  0
 11 12  1  0
 12 13  1  0
 10 14  1  0
 14 15  1  0
 14 16  2  0
 11  1  1  0
  7 17  1  0
 18 19  2  0
 19 20  1  0
 20 21  1  0
 21 22  2  0
 22 18  1  0
 17 23  1  0
 23 24  2  0
 24 25  1  0
 25 26  2  0
 26 27  1  0
 27 28  2  0
 28 23  1  0
 26 29  1  0
 29 30  1  0
 29 31  1  0
 29 32  1  0
 29 33  1  0
 29 34  1  0
 15 35  1  0
M  END
>  <ID_NEW>
CPDMM2148

>  <pIC50>
7.5853441370919406

$$$$

  SciTegic12180812512D

 32 35  0  0  0  0            999 V2000
   -3.2317    2.6624    0.0000 N   0  0
   -5.8317    2.7144    0.0000 C   0  0
   -5.5895    2.0680    0.0000 C   0  0
   -4.9087    1.9518    0.0000 C   0  0
   -5.3923    3.2458    0.0000 C   0  0
   -4.4726    2.4883    0.0000 C   0  0
   -4.7166    3.1334    0.0000 C   0  0
   -4.3650    3.7314    0.0000 C   0  0
   -3.8071    2.2773    0.0000 C   0  0
   -3.6764    3.8311    0.0000 C   0  0
   -3.1737    3.3551    0.0000 C   0  0
   -3.7116    1.5938    0.0000 C   0  0
   -4.2524    1.1723    0.0000 O   0  0
   -2.6372    2.3109    0.0000 S   0  0
   -2.6438    1.6234    0.0000 O   0  0
   -2.8110    2.9761    0.0000 O   0  0
   -1.9501    2.3328    0.0000 C   0  0
   -1.5881    1.7466    0.0000 C   0  0
   -0.9017    1.7681    0.0000 C   0  0
   -0.5778    2.3750    0.0000 C   0  0
   -0.9422    2.9616    0.0000 C   0  0
   -1.6271    2.9366    0.0000 C   0  0
    0.1092    2.3980    0.0000 C   0  0
    0.4706    1.8131    0.0000 C   0  0
    1.1569    1.8357    0.0000 C   0  0
    1.4839    2.4431    0.0000 C   0  0
    1.1145    3.0292    0.0000 C   0  0
    0.4297    3.0031    0.0000 C   0  0
   -3.0711    1.3403    0.0000 N   0  0
   -2.7375    0.7459    0.0000 O   0  0
    2.1709    2.4672    0.0000 C   0  0
    2.8583    2.4874    0.0000 N   0  0
  6  9  1  0
  8 10  1  0
  9  1  1  0
 10 11  1  0
  1 11  1  0
  9 12  1  0
 12 13  2  0
  1 14  1  0
 14 16  2  0
 12 29  1  0
 29 30  1  0
 14 15  2  0
  2  3  2  0
 14 17  1  0
 17 18  2  0
 18 19  1  0
 19 20  2  0
 20 21  1  0
 21 22  2  0
 22 17  1  0
 20 23  1  0
 23 24  2  0
 24 25  1  0
 25 26  2  0
 26 27  1  0
 27 28  2  0
 28 23  1  0
 26 31  1  0
  3  4  1  0
  4  6  2  0
  7  5  2  0
  5  2  1  0
  6  7  1  0
  7  8  1  0
 31 32  3  0
M  STY  1   1 SUP
M  SLB  1   1   1
M  SAL   1  2  31  32
M  SBL   1  1  28
M  SMT   1 CN
M  SBV   1  28   -0.6900   -0.0300
M  END
>  <ID_NEW>
CPDMM2149

>  <pIC50>
7.555471188682865

$$$$

  SciTegic12180812532D

 32 35  0  0  0  0            999 V2000
   -2.3277    1.9208    0.0000 C   0  0
   -2.9726    1.6494    0.0000 S   0  0
   -2.4192    1.2312    0.0000 O   0  0
   -3.3947    1.0986    0.0000 O   0  0
   -1.7772    1.4920    0.0000 C   0  0
   -1.1328    1.7627    0.0000 C   0  0
   -1.0428    2.4526    0.0000 C   0  0
   -1.6033    2.8748    0.0000 C   0  0
   -2.2409    2.6055    0.0000 C   0  0
   -0.3983    2.7208    0.0000 C   0  0
    0.1506    2.2958    0.0000 C   0  0
    0.7945    2.5633    0.0000 C   0  0
    0.8834    3.2575    0.0000 C   0  0
    0.3264    3.6788    0.0000 C   0  0
   -0.3149    3.4085    0.0000 C   0  0
   -5.8333    3.1666    0.0000 C   0  0
   -5.8333    2.4666    0.0000 C   0  0
   -5.2338    2.1250    0.0000 C   0  0
   -5.2338    3.5166    0.0000 C   0  0
   -4.6301    3.1666    0.0000 C   0  0
   -4.0886    3.5942    0.0000 C   0  0
   -3.4163    3.4379    0.0000 C   0  0
   -3.1140    2.8212    0.0000 C   0  0
   -4.6291    2.4666    0.0000 C   0  0
   -3.4139    2.1945    0.0000 N   0  0
   -4.0863    2.0361    0.0000 C   0  0
   -4.2389    1.3543    0.0000 C   0  0
   -4.9058    1.1511    0.0000 N   0  0
   -3.7287    0.8820    0.0000 O   0  0
   -5.0917    0.4833    0.0000 O   0  0
    1.5253    3.5278    0.0000 C   0  0
    2.1705    3.7990    0.0000 N   0  0
  1  2  1  0
  2  3  2  0
  2  4  2  0
  1  5  2  0
  5  6  1  0
  6  7  2  0
  7  8  1  0
  8  9  2  0
  9  1  1  0
  7 10  1  0
 10 11  2  0
 11 12  1  0
 12 13  2  0
 13 14  1  0
 14 15  2  0
 15 10  1  0
 16 17  1  0
 16 19  1  0
 17 18  1  0
 18 24  1  0
 20 19  1  0
 20 21  1  0
 21 22  1  0
 22 23  1  0
 20 24  1  0
 23 25  1  0
 24 26  1  0
 25 26  1  0
 27 28  1  0
 27 29  2  0
 26 27  1  0
 25  2  1  0
 28 30  1  0
 31 32  3  0
 13 31  1  0
M  END
>  <ID_NEW>
CPDMM2150

>  <pIC50>
7.544637343093712

$$$$

  -MTS-   10172316422D 0   0.00000     0.00000     0

 35 38  0  0  1  0  0  0  0  0999 V2000
   -2.9330    2.1500    0.0000 N   0  0  0  0  0  0  0  0  0  0  0  0
   -5.8310    3.3000    0.0000 C   0  0  0  0  0  0  0  0  0  0  0  0
   -5.8320    2.4730    0.0000 C   0  0  0  0  0  0  0  0  0  0  0  0
   -5.1170    2.0600    0.0000 C   0  0  0  0  0  0  0  0  0  0  0  0
   -5.1190    3.7130    0.0000 C   0  0  0  0  0  0  0  0  0  0  0  0
   -4.3980    2.4760    0.0000 C   0  0  0  0  0  0  0  0  0  0  0  0
   -4.4030    3.3040    0.0000 C   0  0  0  0  0  0  0  0  0  0  0  0
   -3.7560    3.8300    0.0000 C   0  0  0  0  0  0  0  0  0  0  0  0
   -3.7420    1.9610    0.0000 C   0  0  2  0  0  0  0  0  0  0  0  0
   -2.9440    3.6550    0.0000 C   0  0  0  0  0  0  0  0  0  0  0  0
   -2.5790    2.9090    0.0000 C   0  0  0  0  0  0  0  0  0  0  0  0
   -3.9200    1.1560    0.0000 C   0  0  0  0  0  0  0  0  0  0  0  0
   -4.7070    0.9070    0.0000 N   0  0  0  0  0  0  0  0  0  0  0  0
   -3.3120    0.5980    0.0000 O   0  0  0  0  0  0  0  0  0  0  0  0
   -4.8850    0.1010    0.0000 O   0  0  0  0  0  0  0  0  0  0  0  0
   -2.4130    1.5100    0.0000 S   0  0  0  0  0  0  0  0  0  0  0  0
   -1.6210    1.7290    0.0000 C   0  0  0  0  0  0  0  0  0  0  0  0
   -3.2170    1.3000    0.0000 O   0  0  0  0  0  0  0  0  0  0  0  0
   -2.4210    0.6870    0.0000 O   0  0  0  0  0  0  0  0  0  0  0  0
   -1.0360    1.1500    0.0000 C   0  0  0  0  0  0  0  0  0  0  0  0
   -0.2450    1.3690    0.0000 C   0  0  0  0  0  0  0  0  0  0  0  0
   -0.0380    2.1650    0.0000 C   0  0  0  0  0  0  0  0  0  0  0  0
   -0.6290    2.7430    0.0000 C   0  0  0  0  0  0  0  0  0  0  0  0
   -1.4180    2.5210    0.0000 C   0  0  0  0  0  0  0  0  0  0  0  0
    0.7570    2.3860    0.0000 C   0  0  0  0  0  0  0  0  0  0  0  0
    1.3450    1.8080    0.0000 C   0  0  0  0  0  0  0  0  0  0  0  0
    2.1390    2.0280    0.0000 C   0  0  0  0  0  0  0  0  0  0  0  0
    2.3450    2.8280    0.0000 C   0  0  0  0  0  0  0  0  0  0  0  0
    1.7520    3.4070    0.0000 C   0  0  0  0  0  0  0  0  0  0  0  0
    0.9600    3.1830    0.0000 C   0  0  0  0  0  0  0  0  0  0  0  0
    3.1400    3.0500    0.0000 O   0  0  0  0  0  0  0  0  0  0  0  0
    3.7300    2.4730    0.0000 C   0  0  0  0  0  0  0  0  0  0  0  0
    4.5240    2.6950    0.0000 F   0  0  0  0  0  0  0  0  0  0  0  0
    3.5250    1.6740    0.0000 F   0  0  0  0  0  0  0  0  0  0  0  0
    3.7210    3.2980    0.0000 F   0  0  0  0  0  0  0  0  0  0  0  0
  1 11  1  0  0  0  0
  9 12  1  1  0  0  0
 12 13  1  0  0  0  0
 12 14  2  0  0  0  0
 13 15  1  0  0  0  0
  1 16  1  0  0  0  0
 16 17  1  0  0  0  0
 16 18  2  0  0  0  0
 16 19  2  0  0  0  0
 17 20  2  0  0  0  0
 20 21  1  0  0  0  0
 21 22  2  0  0  0  0
 22 23  1  0  0  0  0
 23 24  2  0  0  0  0
 24 17  1  0  0  0  0
 22 25  1  0  0  0  0
 25 26  2  0  0  0  0
 26 27  1  0  0  0  0
 27 28  2  0  0  0  0
 28 29  1  0  0  0  0
 29 30  2  0  0  0  0
 30 25  1  0  0  0  0
  2  3  2  0  0  0  0
  3  4  1  0  0  0  0
  4  6  2  0  0  0  0
  7  5  2  0  0  0  0
  5  2  1  0  0  0  0
  6  7  1  0  0  0  0
  7  8  1  0  0  0  0
  6  9  1  0  0  0  0
  8 10  1  0  0  0  0
  9  1  1  0  0  0  0
 10 11  1  0  0  0  0
 28 31  1  0  0  0  0
 31 32  1  0  0  0  0
 32 33  1  0  0  0  0
 32 34  1  0  0  0  0
 32 35  1  0  0  0  0
M  END
>  <ID_NEW>
CPDMM2151

>  <pIC50>
7.532761979212433

$$$$

  -MTS-   10172316422D 0   0.00000     0.00000     0

 32 35  0  0  1  0  0  0  0  0999 V2000
   -5.2310    2.0580    0.0000 C   0  0  0  0  0  0  0  0  0  0  0  0
   -5.2320    1.3350    0.0000 C   0  0  0  0  0  0  0  0  0  0  0  0
   -4.5670    0.9720    0.0000 C   0  0  0  0  0  0  0  0  0  0  0  0
   -4.5690    2.4250    0.0000 C   0  0  0  0  0  0  0  0  0  0  0  0
   -3.9070    2.0660    0.0000 C   0  0  0  0  0  0  0  0  0  0  0  0
   -3.9080    1.3370    0.0000 C   0  0  0  0  0  0  0  0  0  0  0  0
   -3.2390    0.9720    0.0000 C   0  0  0  0  0  0  0  0  0  0  0  0
   -2.5690    1.3350    0.0000 N   0  0  0  0  0  0  0  0  0  0  0  0
   -2.5680    2.0640    0.0000 C   0  0  2  0  0  0  0  0  0  0  0  0
   -3.2380    2.4250    0.0000 C   0  0  0  0  0  0  0  0  0  0  0  0
   -1.8960    2.4280    0.0000 C   0  0  0  0  0  0  0  0  0  0  0  0
   -1.2350    2.0560    0.0000 N   0  0  0  0  0  0  0  0  0  0  0  0
   -1.8990    3.1490    0.0000 O   0  0  0  0  0  0  0  0  0  0  0  0
   -1.8990    0.9700    0.0000 S   0  0  0  0  0  0  0  0  0  0  0  0
   -1.2300    0.6080    0.0000 C   0  0  0  0  0  0  0  0  0  0  0  0
   -1.5120    1.6010    0.0000 O   0  0  0  0  0  0  0  0  0  0  0  0
   -2.2880    0.3340    0.0000 O   0  0  0  0  0  0  0  0  0  0  0  0
   -1.2310   -0.1330    0.0000 C   0  0  0  0  0  0  0  0  0  0  0  0
   -0.5580   -0.5000    0.0000 C   0  0  0  0  0  0  0  0  0  0  0  0
    0.1180   -0.1380    0.0000 C   0  0  0  0  0  0  0  0  0  0  0  0
    0.1190    0.6070    0.0000 C   0  0  0  0  0  0  0  0  0  0  0  0
   -0.5500    0.9650    0.0000 C   0  0  0  0  0  0  0  0  0  0  0  0
    0.7900   -0.5020    0.0000 N   0  0  0  0  0  0  0  0  0  0  0  0
    0.7750   -1.2170    0.0000 C   0  0  0  0  0  0  0  0  0  0  0  0
    1.4350   -1.5850    0.0000 C   0  0  0  0  0  0  0  0  0  0  0  0
    2.1020   -1.2240    0.0000 N   0  0  0  0  0  0  0  0  0  0  0  0
    2.1140   -0.5020    0.0000 C   0  0  0  0  0  0  0  0  0  0  0  0
    1.4380   -0.1380    0.0000 C   0  0  0  0  0  0  0  0  0  0  0  0
    2.7730   -1.6030    0.0000 C   0  0  0  0  0  0  0  0  0  0  0  0
    2.7790   -2.3600    0.0000 O   0  0  0  0  0  0  0  0  0  0  0  0
    3.4200   -1.2130    0.0000 C   0  0  0  0  0  0  0  0  0  0  0  0
   -0.5820    2.4400    0.0000 O   0  0  0  0  0  0  0  0  0  0  0  0
  8  9  1  0  0  0  0
 20 21  1  0  0  0  0
  9 10  1  0  0  0  0
 21 22  2  0  0  0  0
 22 15  1  0  0  0  0
  5  6  1  0  0  0  0
 20 23  1  0  0  0  0
 23 24  1  0  0  0  0
  9 11  1  6  0  0  0
 11 12  1  0  0  0  0
  2  3  1  0  0  0  0
 11 13  2  0  0  0  0
 23 28  1  0  0  0  0
 24 25  1  0  0  0  0
 25 26  1  0  0  0  0
 26 27  1  0  0  0  0
 27 28  1  0  0  0  0
  3  6  2  0  0  0  0
 26 29  1  0  0  0  0
  8 14  1  0  0  0  0
  1  2  2  0  0  0  0
 14 15  1  0  0  0  0
  5  4  2  0  0  0  0
 14 16  2  0  0  0  0
  4  1  1  0  0  0  0
 14 17  2  0  0  0  0
  5 10  1  0  0  0  0
 15 18  2  0  0  0  0
  6  7  1  0  0  0  0
 18 19  1  0  0  0  0
 29 30  2  0  0  0  0
  7  8  1  0  0  0  0
 29 31  1  0  0  0  0
 19 20  2  0  0  0  0
 12 32  1  0  0  0  0
M  END
>  <ID_NEW>
CPDMM2152

>  <pIC50>
7.522878745280337

$$$$

  -MTS-   10172316422D 0   0.00000     0.00000     0

 32 35  0  0  1  0  0  0  0  0999 V2000
   -0.2600   -1.4790    0.0000 C   0  0  0  0  0  0  0  0  0  0  0  0
   -0.2610   -2.3020    0.0000 C   0  0  0  0  0  0  0  0  0  0  0  0
    0.4580   -2.7150    0.0000 C   0  0  0  0  0  0  0  0  0  0  0  0
    0.4560   -1.0660    0.0000 C   0  0  0  0  0  0  0  0  0  0  0  0
    1.1670   -1.4750    0.0000 C   0  0  0  0  0  0  0  0  0  0  0  0
    1.1670   -2.3000    0.0000 C   0  0  0  0  0  0  0  0  0  0  0  0
    1.8820   -2.7160    0.0000 C   0  0  0  0  0  0  0  0  0  0  0  0
    2.5980   -2.3030    0.0000 N   0  0  0  0  0  0  0  0  0  0  0  0
    2.5990   -1.4780    0.0000 C   0  0  2  0  0  0  0  0  0  0  0  0
    1.8830   -1.0660    0.0000 C   0  0  0  0  0  0  0  0  0  0  0  0
    3.3200   -1.0630    0.0000 C   0  0  0  0  0  0  0  0  0  0  0  0
    4.0320   -1.4820    0.0000 O   0  0  0  0  0  0  0  0  0  0  0  0
    3.3220   -0.2380    0.0000 O   0  0  0  0  0  0  0  0  0  0  0  0
    3.3180   -2.7220    0.0000 S   0  0  0  0  0  0  0  0  0  0  0  0
    3.7390   -2.0030    0.0000 O   0  0  0  0  0  0  0  0  0  0  0  0
    2.8980   -3.4440    0.0000 O   0  0  0  0  0  0  0  0  0  0  0  0
    4.0400   -3.1430    0.0000 C   0  0  0  0  0  0  0  0  0  0  0  0
    4.7600   -2.7300    0.0000 C   0  0  0  0  0  0  0  0  0  0  0  0
    5.4740   -3.1480    0.0000 C   0  0  0  0  0  0  0  0  0  0  0  0
    5.4630   -3.9760    0.0000 C   0  0  0  0  0  0  0  0  0  0  0  0
    6.1760   -4.3890    0.0000 C   0  0  0  0  0  0  0  0  0  0  0  0
    6.9050   -3.9860    0.0000 C   0  0  0  0  0  0  0  0  0  0  0  0
    6.9110   -3.1600    0.0000 C   0  0  0  0  0  0  0  0  0  0  0  0
    6.1930   -2.7390    0.0000 C   0  0  0  0  0  0  0  0  0  0  0  0
    7.6190   -4.3980    0.0000 C   0  0  0  0  0  0  0  0  0  0  0  0
    7.6180   -5.2260    0.0000 C   0  0  0  0  0  0  0  0  0  0  0  0
    8.3320   -5.6380    0.0000 C   0  0  0  0  0  0  0  0  0  0  0  0
    9.0520   -5.2250    0.0000 C   0  0  0  0  0  0  0  0  0  0  0  0
    9.0530   -4.3960    0.0000 C   0  0  0  0  0  0  0  0  0  0  0  0
    8.3340   -3.9830    0.0000 C   0  0  0  0  0  0  0  0  0  0  0  0
    9.7780   -5.6430    0.0000 C   0  0  0  0  0  0  0  0  0  0  0  0
   10.5010   -6.0600    0.0000 N   0  0  0  0  0  0  0  0  0  0  0  0
  5  4  2  0  0  0  0
 14 16  2  0  0  0  0
  4  1  1  0  0  0  0
 14 17  1  0  0  0  0
  5 10  1  0  0  0  0
 17 18  1  0  0  0  0
  6  7  1  0  0  0  0
 18 19  1  0  0  0  0
  7  8  1  0  0  0  0
 19 20  2  0  0  0  0
  8  9  1  0  0  0  0
 20 21  1  0  0  0  0
  9 10  1  0  0  0  0
 21 22  2  0  0  0  0
  5  6  1  0  0  0  0
 22 23  1  0  0  0  0
  9 11  1  6  0  0  0
 23 24  2  0  0  0  0
 24 19  1  0  0  0  0
 22 25  1  0  0  0  0
 11 12  1  0  0  0  0
 25 26  2  0  0  0  0
  2  3  1  0  0  0  0
 26 27  1  0  0  0  0
 11 13  2  0  0  0  0
 27 28  2  0  0  0  0
  3  6  2  0  0  0  0
 28 29  1  0  0  0  0
  8 14  1  0  0  0  0
 29 30  2  0  0  0  0
 30 25  1  0  0  0  0
  1  2  2  0  0  0  0
 28 31  1  0  0  0  0
 14 15  2  0  0  0  0
 31 32  3  0  0  0  0
M  END
>  <ID_NEW>
CPDMM2153

>  <pIC50>
7.522878745280337

$$$$

  SciTegic12180812132D

 28 30  0  0  0  0            999 V2000
   -5.0916   -0.3375    0.0000 S   0  0
   -4.4432    0.1283    0.0000 C   0  0
   -4.6958    0.8958    0.0000 C   0  0
   -5.4916    0.8958    0.0000 C   0  0
   -5.7401    0.1283    0.0000 C   0  0
   -3.6840   -0.1153    0.0000 C   0  0
   -3.5178   -0.8975    0.0000 O   0  0
   -3.0909    0.4192    0.0000 N   0  0
   -4.1292    1.4625    0.0000 S   0  0
   -3.3584    1.6750    0.0000 N   0  0
   -4.5277    2.1545    0.0000 O   0  0
   -4.9000    1.6750    0.0000 O   0  0
   -2.7901    1.1087    0.0000 C   0  0
   -2.0223    1.3142    0.0000 C   0  0
   -1.8162    2.0901    0.0000 N   0  0
   -2.3801    2.6523    0.0000 C   0  0
   -3.1544    2.4468    0.0000 C   0  0
   -1.0459    2.3000    0.0000 C   0  0
   -0.4771    1.7342    0.0000 C   0  0
    0.2926    1.9436    0.0000 C   0  0
    0.4936    2.7214    0.0000 C   0  0
   -0.0771    3.2812    0.0000 C   0  0
   -0.8445    3.0690    0.0000 N   0  0
    1.2639    2.9323    0.0000 C   0  0
    1.8349    2.3699    0.0000 F   0  0
    1.4675    3.7057    0.0000 F   0  0
    1.2741    2.1323    0.0000 F   0  0
   -2.3792    0.0083    0.0000 O   0  0
  4  5  2  0
  6  7  2  0
  2  3  2  0
  6  8  1  0
 10 17  1  0
 13 14  1  0
 14 15  1  0
 15 16  1  0
 16 17  1  0
  1  2  1  0
 15 18  1  0
  3  9  1  0
 18 19  2  0
  3  4  1  0
 19 20  1  0
  9 10  1  0
 20 21  2  0
  5  1  1  0
 21 22  1  0
  9 11  2  0
 22 23  2  0
 23 18  1  0
 21 24  1  0
  9 12  2  0
 24 25  1  0
 10 13  1  0
 24 26  1  0
  2  6  1  0
 24 27  1  0
  8 28  1  0
M  END
>  <ID_NEW>
CPDMM2154

>  <pIC50>
7.522878745280337

$$$$

  -MTS-   10172316422D 0   0.00000     0.00000     0

 33 37  0  0  1  0  0  0  0  0999 V2000
    5.7100   -1.3690    0.0000 N   0  0  0  0  0  0  0  0  0  0  0  0
    5.9040   -2.0920    0.0000 S   0  0  0  0  0  0  0  0  0  0  0  0
    6.1530   -0.7540    0.0000 C   0  0  2  0  0  0  0  0  0  0  0  0
    4.9910   -1.1370    0.0000 C   0  0  1  0  0  0  0  0  0  0  0  0
    5.7040   -0.1440    0.0000 C   0  0  0  0  0  0  0  0  0  0  0  0
    6.0960   -2.8210    0.0000 C   0  0  0  0  0  0  0  0  0  0  0  0
    4.9870   -0.3830    0.0000 C   0  0  1  0  0  0  0  0  0  0  0  0
    7.2420   -7.1580    0.0000 N   0  0  0  0  0  0  0  0  0  0  0  0
    5.1710   -2.2920    0.0000 O   0  0  0  0  0  0  0  0  0  0  0  0
    6.6290   -1.8960    0.0000 O   0  0  0  0  0  0  0  0  0  0  0  0
    7.0530   -6.4340    0.0000 C   0  0  0  0  0  0  0  0  0  0  0  0
    6.4810   -4.2740    0.0000 C   0  0  0  0  0  0  0  0  0  0  0  0
    6.6710   -4.9960    0.0000 C   0  0  0  0  0  0  0  0  0  0  0  0
    6.8200   -3.0130    0.0000 C   0  0  0  0  0  0  0  0  0  0  0  0
    5.5610   -3.3490    0.0000 C   0  0  0  0  0  0  0  0  0  0  0  0
    6.3310   -6.2410    0.0000 C   0  0  0  0  0  0  0  0  0  0  0  0
    7.5810   -5.9050    0.0000 C   0  0  0  0  0  0  0  0  0  0  0  0
    5.7520   -4.0780    0.0000 C   0  0  0  0  0  0  0  0  0  0  0  0
    7.3880   -5.1860    0.0000 C   0  0  0  0  0  0  0  0  0  0  0  0
    7.0140   -3.7390    0.0000 C   0  0  0  0  0  0  0  0  0  0  0  0
    6.1410   -5.5190    0.0000 C   0  0  0  0  0  0  0  0  0  0  0  0
    4.2750   -1.3710    0.0000 C   0  0  0  0  0  0  0  0  0  0  0  0
    6.7760   -7.7400    0.0000 C   0  0  0  0  0  0  0  0  0  0  0  0
    7.9450   -7.4290    0.0000 C   0  0  0  0  0  0  0  0  0  0  0  0
    4.2680   -0.1530    0.0000 C   0  0  0  0  0  0  0  0  0  0  0  0
    3.8240   -0.7640    0.0000 C   0  0  0  0  0  0  0  0  0  0  0  0
    7.9030   -8.1750    0.0000 C   0  0  0  0  0  0  0  0  0  0  0  0
    7.1790   -8.3680    0.0000 C   0  0  0  0  0  0  0  0  0  0  0  0
    6.9040   -0.7540    0.0000 C   0  0  0  0  0  0  0  0  0  0  0  0
    7.2810   -0.1050    0.0000 O   0  0  0  0  0  0  0  0  0  0  0  0
    7.2810   -1.4030    0.0000 O   0  0  0  0  0  0  0  0  0  0  0  0
    4.9810    0.6170    0.0000 H   0  0  0  0  0  0  0  0  0  0  0  0
    4.9930   -2.1370    0.0000 H   0  0  0  0  0  0  0  0  0  0  0  0
  2  6  1  0  0  0  0
  6 15  2  0  0  0  0
 15 18  1  0  0  0  0
 18 12  2  0  0  0  0
 12 20  1  0  0  0  0
 20 14  2  0  0  0  0
 14  6  1  0  0  0  0
 12 13  1  0  0  0  0
 13 21  2  0  0  0  0
 21 16  1  0  0  0  0
 16 11  2  0  0  0  0
 11 17  1  0  0  0  0
 17 19  2  0  0  0  0
 19 13  1  0  0  0  0
 11  8  1  0  0  0  0
  8 23  1  0  0  0  0
 23 28  1  0  0  0  0
 28 27  1  0  0  0  0
 27 24  1  0  0  0  0
 24  8  1  0  0  0  0
  7 25  1  0  0  0  0
 25 26  1  0  0  0  0
 26 22  1  0  0  0  0
 22  4  1  0  0  0  0
  7  4  1  0  0  0  0
  4  1  1  0  0  0  0
  1  3  1  0  0  0  0
  3  5  1  0  0  0  0
  5  7  1  0  0  0  0
  3 29  1  6  0  0  0
  1  2  1  0  0  0  0
  2  9  2  0  0  0  0
  2 10  2  0  0  0  0
 29 31  1  0  0  0  0
 29 30  2  0  0  0  0
  7 32  1  1  0  0  0
  4 33  1  1  0  0  0
M  END
>  <ID_NEW>
CPDMM2155

>  <pIC50>
7.522878745280337

$$$$

  -MTS-   10172316422D 0   0.00000     0.00000     0

 35 38  0  0  1  0  0  0  0  0999 V2000
   -0.2140   -1.9750    0.0000 C   0  0  0  0  0  0  0  0  0  0  0  0
   -0.2150   -2.8020    0.0000 C   0  0  0  0  0  0  0  0  0  0  0  0
    0.5000   -3.2150    0.0000 C   0  0  0  0  0  0  0  0  0  0  0  0
    0.4980   -1.5620    0.0000 C   0  0  0  0  0  0  0  0  0  0  0  0
    1.2130   -1.9710    0.0000 C   0  0  0  0  0  0  0  0  0  0  0  0
    1.2120   -2.8000    0.0000 C   0  0  0  0  0  0  0  0  0  0  0  0
    1.9250   -3.2130    0.0000 C   0  0  1  0  0  0  0  0  0  0  0  0
    2.6440   -2.8020    0.0000 N   0  0  0  0  0  0  0  0  0  0  0  0
    2.6450   -1.9730    0.0000 C   0  0  0  0  0  0  0  0  0  0  0  0
    1.9270   -1.5560    0.0000 C   0  0  0  0  0  0  0  0  0  0  0  0
    1.9230   -4.0380    0.0000 C   0  0  0  0  0  0  0  0  0  0  0  0
    1.2070   -4.4480    0.0000 N   0  0  0  0  0  0  0  0  0  0  0  0
    2.6360   -4.4520    0.0000 O   0  0  0  0  0  0  0  0  0  0  0  0
    1.2050   -5.2730    0.0000 O   0  0  0  0  0  0  0  0  0  0  0  0
    3.3570   -3.2160    0.0000 S   0  0  0  0  0  0  0  0  0  0  0  0
    3.7620   -2.4960    0.0000 O   0  0  0  0  0  0  0  0  0  0  0  0
    2.9370   -3.9250    0.0000 O   0  0  0  0  0  0  0  0  0  0  0  0
    4.0670   -3.6250    0.0000 C   0  0  0  0  0  0  0  0  0  0  0  0
    4.0650   -4.4450    0.0000 C   0  0  0  0  0  0  0  0  0  0  0  0
    4.7730   -4.8530    0.0000 N   0  0  0  0  0  0  0  0  0  0  0  0
    5.4830   -4.4430    0.0000 C   0  0  0  0  0  0  0  0  0  0  0  0
    5.4800   -3.6200    0.0000 C   0  0  0  0  0  0  0  0  0  0  0  0
    4.7700   -3.2150    0.0000 C   0  0  0  0  0  0  0  0  0  0  0  0
    6.1990   -4.8540    0.0000 O   0  0  0  0  0  0  0  0  0  0  0  0
    6.9080   -4.4330    0.0000 C   0  0  0  0  0  0  0  0  0  0  0  0
    7.6270   -4.8400    0.0000 C   0  0  0  0  0  0  0  0  0  0  0  0
    8.3360   -4.4200    0.0000 C   0  0  0  0  0  0  0  0  0  0  0  0
    8.3270   -3.5950    0.0000 C   0  0  0  0  0  0  0  0  0  0  0  0
    7.6030   -3.1910    0.0000 C   0  0  0  0  0  0  0  0  0  0  0  0
    6.8970   -3.6130    0.0000 C   0  0  0  0  0  0  0  0  0  0  0  0
    9.0360   -3.1730    0.0000 O   0  0  0  0  0  0  0  0  0  0  0  0
    9.7560   -3.5760    0.0000 C   0  0  0  0  0  0  0  0  0  0  0  0
   10.4650   -3.1540    0.0000 F   0  0  0  0  0  0  0  0  0  0  0  0
    9.7670   -4.4010    0.0000 F   0  0  0  0  0  0  0  0  0  0  0  0
   10.4670   -3.9870    0.0000 F   0  0  0  0  0  0  0  0  0  0  0  0
 15 17  2  0  0  0  0
  5 10  1  0  0  0  0
 15 18  1  0  0  0  0
  6  7  1  0  0  0  0
 18 19  2  0  0  0  0
  7  8  1  0  0  0  0
 19 20  1  0  0  0  0
  8  9  1  0  0  0  0
 20 21  2  0  0  0  0
  9 10  1  0  0  0  0
 21 22  1  0  0  0  0
  5  6  1  0  0  0  0
 22 23  2  0  0  0  0
 23 18  1  0  0  0  0
  7 11  1  1  0  0  0
 21 24  1  0  0  0  0
 24 25  1  0  0  0  0
 11 12  1  0  0  0  0
 25 26  2  0  0  0  0
  2  3  1  0  0  0  0
 26 27  1  0  0  0  0
 11 13  2  0  0  0  0
 27 28  2  0  0  0  0
  3  6  2  0  0  0  0
 28 29  1  0  0  0  0
 12 14  1  0  0  0  0
 29 30  2  0  0  0  0
 30 25  1  0  0  0  0
  1  2  2  0  0  0  0
 28 31  1  0  0  0  0
  8 15  1  0  0  0  0
 31 32  1  0  0  0  0
  5  4  2  0  0  0  0
 32 33  1  0  0  0  0
 15 16  2  0  0  0  0
 32 34  1  0  0  0  0
  4  1  1  0  0  0  0
 32 35  1  0  0  0  0
M  END
>  <ID_NEW>
CPDMM2156

>  <pIC50>
7.522878745280337

$$$$

  -MTS-   10172316422D 0   0.00000     0.00000     0

 31 34  0  0  1  0  0  0  0  0999 V2000
   -0.2140   -1.9750    0.0000 C   0  0  0  0  0  0  0  0  0  0  0  0
   -0.2150   -2.8020    0.0000 C   0  0  0  0  0  0  0  0  0  0  0  0
    0.5000   -3.2150    0.0000 C   0  0  0  0  0  0  0  0  0  0  0  0
    0.4980   -1.5620    0.0000 C   0  0  0  0  0  0  0  0  0  0  0  0
    1.2130   -1.9710    0.0000 C   0  0  0  0  0  0  0  0  0  0  0  0
    1.2120   -2.8000    0.0000 C   0  0  0  0  0  0  0  0  0  0  0  0
    1.9250   -3.2130    0.0000 C   0  0  1  0  0  0  0  0  0  0  0  0
    2.6440   -2.8020    0.0000 N   0  0  0  0  0  0  0  0  0  0  0  0
    2.6450   -1.9730    0.0000 C   0  0  0  0  0  0  0  0  0  0  0  0
    1.9270   -1.5560    0.0000 C   0  0  0  0  0  0  0  0  0  0  0  0
    1.9230   -4.0380    0.0000 C   0  0  0  0  0  0  0  0  0  0  0  0
    1.2070   -4.4480    0.0000 N   0  0  0  0  0  0  0  0  0  0  0  0
    2.6360   -4.4520    0.0000 O   0  0  0  0  0  0  0  0  0  0  0  0
    1.2050   -5.2730    0.0000 O   0  0  0  0  0  0  0  0  0  0  0  0
    3.3570   -3.2160    0.0000 S   0  0  0  0  0  0  0  0  0  0  0  0
    3.7620   -2.4960    0.0000 O   0  0  0  0  0  0  0  0  0  0  0  0
    2.9370   -3.9250    0.0000 O   0  0  0  0  0  0  0  0  0  0  0  0
    4.0670   -3.6250    0.0000 C   0  0  0  0  0  0  0  0  0  0  0  0
    4.0650   -4.4450    0.0000 C   0  0  0  0  0  0  0  0  0  0  0  0
    4.7730   -4.8530    0.0000 N   0  0  0  0  0  0  0  0  0  0  0  0
    5.4830   -4.4430    0.0000 C   0  0  0  0  0  0  0  0  0  0  0  0
    5.4800   -3.6200    0.0000 C   0  0  0  0  0  0  0  0  0  0  0  0
    4.7700   -3.2150    0.0000 C   0  0  0  0  0  0  0  0  0  0  0  0
    6.1990   -4.8540    0.0000 O   0  0  0  0  0  0  0  0  0  0  0  0
    6.9080   -4.4330    0.0000 C   0  0  0  0  0  0  0  0  0  0  0  0
    7.6270   -4.8400    0.0000 C   0  0  0  0  0  0  0  0  0  0  0  0
    8.3360   -4.4200    0.0000 C   0  0  0  0  0  0  0  0  0  0  0  0
    8.3270   -3.5950    0.0000 C   0  0  0  0  0  0  0  0  0  0  0  0
    7.6030   -3.1910    0.0000 C   0  0  0  0  0  0  0  0  0  0  0  0
    6.8970   -3.6130    0.0000 C   0  0  0  0  0  0  0  0  0  0  0  0
    9.0360   -3.1730    0.0000 Cl  0  0  0  0  0  0  0  0  0  0  0  0
 15 17  2  0  0  0  0
  5 10  1  0  0  0  0
 15 18  1  0  0  0  0
  6  7  1  0  0  0  0
 18 19  2  0  0  0  0
  7  8  1  0  0  0  0
 19 20  1  0  0  0  0
  8  9  1  0  0  0  0
 20 21  2  0  0  0  0
  9 10  1  0  0  0  0
 21 22  1  0  0  0  0
  5  6  1  0  0  0  0
 22 23  2  0  0  0  0
 23 18  1  0  0  0  0
  7 11  1  1  0  0  0
 21 24  1  0  0  0  0
 24 25  1  0  0  0  0
 11 12  1  0  0  0  0
 25 26  2  0  0  0  0
  2  3  1  0  0  0  0
 26 27  1  0  0  0  0
 11 13  2  0  0  0  0
 27 28  2  0  0  0  0
  3  6  2  0  0  0  0
 28 29  1  0  0  0  0
 12 14  1  0  0  0  0
 29 30  2  0  0  0  0
 30 25  1  0  0  0  0
  1  2  2  0  0  0  0
  8 15  1  0  0  0  0
  5  4  2  0  0  0  0
 15 16  2  0  0  0  0
  4  1  1  0  0  0  0
 28 31  1  0  0  0  0
M  END
>  <ID_NEW>
CPDMM2157

>  <pIC50>
7.522878745280337

$$$$

  SciTegic12180812532D

 31 34  0  0  0  0            999 V2000
   -2.3277    2.0750    0.0000 C   0  0
   -2.9726    1.8036    0.0000 S   0  0
   -2.4192    1.3854    0.0000 O   0  0
   -3.3947    1.2528    0.0000 O   0  0
   -1.7772    1.6462    0.0000 C   0  0
   -1.1328    1.9169    0.0000 C   0  0
   -1.0428    2.6068    0.0000 C   0  0
   -1.6033    3.0290    0.0000 C   0  0
   -2.2409    2.7597    0.0000 C   0  0
   -0.3983    2.8750    0.0000 C   0  0
    0.1506    2.4500    0.0000 C   0  0
    0.7945    2.7175    0.0000 C   0  0
    0.8834    3.4117    0.0000 C   0  0
    0.3264    3.8330    0.0000 C   0  0
   -0.3149    3.5627    0.0000 C   0  0
    1.5275    3.6809    0.0000 Cl  0  0
   -5.8333    3.3208    0.0000 C   0  0
   -5.8333    2.6208    0.0000 C   0  0
   -5.2338    2.2792    0.0000 C   0  0
   -5.2338    3.6708    0.0000 C   0  0
   -4.6301    3.3208    0.0000 C   0  0
   -4.0886    3.7484    0.0000 C   0  0
   -3.4163    3.5921    0.0000 C   0  0
   -3.1140    2.9754    0.0000 C   0  0
   -4.6291    2.6208    0.0000 C   0  0
   -3.4139    2.3487    0.0000 N   0  0
   -4.0863    2.1903    0.0000 C   0  0
   -4.2389    1.5085    0.0000 C   0  0
   -4.9058    1.3053    0.0000 N   0  0
   -3.7287    1.0362    0.0000 O   0  0
   -5.0917    0.6375    0.0000 O   0  0
  1  2  1  0
  2  3  2  0
  2  4  2  0
  1  5  2  0
  5  6  1  0
  6  7  2  0
  7  8  1  0
  8  9  2  0
  9  1  1  0
  7 10  1  0
 10 11  2  0
 11 12  1  0
 12 13  2  0
 13 14  1  0
 14 15  2  0
 15 10  1  0
 13 16  1  0
 17 18  1  0
 17 20  1  0
 18 19  1  0
 19 25  1  0
 21 20  1  0
 21 22  1  0
 22 23  1  0
 23 24  1  0
 21 25  1  0
 24 26  1  0
 25 27  1  0
 26 27  1  0
 28 29  1  0
 28 30  2  0
 27 28  1  0
 26  2  1  0
 29 31  1  0
M  END
>  <ID_NEW>
CPDMM2158

>  <pIC50>
7.494592235854059

$$$$

  SciTegic12180812512D

 35 38  0  0  0  0            999 V2000
    0.9819   -3.0583    0.0000 C   0  0
    0.9807   -3.8857    0.0000 C   0  0
    1.6955   -4.2986    0.0000 C   0  0
    1.6937   -2.6456    0.0000 C   0  0
    2.4091   -3.0547    0.0000 C   0  0
    3.0519   -2.5440    0.0000 C   0  0
    3.8531   -2.7238    0.0000 C   0  0
    4.2132   -3.4593    0.0000 C   0  0
    2.4125   -3.8832    0.0000 C   0  0
    3.8597   -4.2068    0.0000 N   0  0
    3.0595   -4.3932    0.0000 C   0  0
    2.8809   -5.2020    0.0000 C   0  0
    2.0938   -5.4492    0.0000 N   0  0
    3.4885   -5.7601    0.0000 O   0  0
    4.3779   -4.8488    0.0000 S   0  0
    4.0809   -5.6185    0.0000 O   0  0
    4.9583   -5.4292    0.0000 O   0  0
    5.0875   -4.4292    0.0000 C   0  0
    5.8053   -4.8369    0.0000 C   0  0
    6.5144   -4.4179    0.0000 C   0  0
    6.5062   -3.5927    0.0000 C   0  0
    5.7830   -3.1882    0.0000 C   0  0
    5.0768   -3.6095    0.0000 C   0  0
    7.2158   -3.1718    0.0000 C   0  0
    7.9343   -3.5776    0.0000 C   0  0
    8.6433   -3.1574    0.0000 C   0  0
    8.6341   -2.3316    0.0000 C   0  0
    7.9098   -1.9278    0.0000 C   0  0
    7.2037   -2.3503    0.0000 C   0  0
    9.3431   -1.9098    0.0000 O   0  0
   10.0630   -2.3129    0.0000 C   0  0
   10.7720   -1.8911    0.0000 F   0  0
   10.0737   -3.1378    0.0000 F   0  0
    9.8390   -1.5189    0.0000 F   0  0
    1.6750   -6.1583    0.0000 O   0  0
 15 16  2  0
  7  8  1  0
 15 17  2  0
  5  4  2  0
 15 18  1  0
  5  9  1  0
 18 19  2  0
  8 10  1  0
 19 20  1  0
  4  1  1  0
 20 21  2  0
  9 11  1  0
 21 22  1  0
 22 23  2  0
 23 18  1  0
 10 11  1  0
 21 24  1  0
  2  3  1  0
 24 25  2  0
  5  6  1  0
 25 26  1  0
  3  9  2  0
 26 27  2  0
 12 13  1  0
 27 28  1  0
 12 14  2  0
 28 29  2  0
 29 24  1  0
 11 12  1  0
  6  7  1  0
 10 15  1  0
  1  2  2  0
 27 30  1  0
 30 31  1  0
 31 32  1  0
 31 33  1  0
 31 34  1  0
 13 35  1  0
M  END
>  <ID_NEW>
CPDMM2159

>  <pIC50>
7.488170093939267

$$$$

  -MTS-   10172316422D 0   0.00000     0.00000     0

 32 36  0  0  1  0  0  0  0  0999 V2000
    3.1440   -9.4820    0.0000 C   0  0  2  0  0  0  0  0  0  0  0  0
    3.6310   -9.2030    0.0000 N   0  0  0  0  0  0  0  0  0  0  0  0
    3.6280   -8.6440    0.0000 C   0  0  0  0  0  0  0  0  0  0  0  0
    3.1370   -8.3660    0.0000 C   0  0  0  0  0  0  0  0  0  0  0  0
    3.1460  -10.0410    0.0000 C   0  0  0  0  0  0  0  0  0  0  0  0
    2.6680  -10.3130    0.0000 N   0  0  0  0  0  0  0  0  0  0  0  0
    3.6300  -10.3130    0.0000 O   0  0  0  0  0  0  0  0  0  0  0  0
    4.5940   -9.7580    0.0000 C   0  0  0  0  0  0  0  0  0  0  0  0
    4.5930  -10.3110    0.0000 C   0  0  0  0  0  0  0  0  0  0  0  0
    5.0710  -10.5900    0.0000 C   0  0  0  0  0  0  0  0  0  0  0  0
    5.5540  -10.3100    0.0000 C   0  0  0  0  0  0  0  0  0  0  0  0
    5.5510   -9.7550    0.0000 C   0  0  0  0  0  0  0  0  0  0  0  0
    5.0690   -9.4790    0.0000 C   0  0  0  0  0  0  0  0  0  0  0  0
    4.1130   -9.4790    0.0000 S   0  0  0  0  0  0  0  0  0  0  0  0
    4.5040   -9.0830    0.0000 O   0  0  0  0  0  0  0  0  0  0  0  0
    3.7170   -9.8710    0.0000 O   0  0  0  0  0  0  0  0  0  0  0  0
    2.6630   -9.2080    0.0000 C   0  0  1  0  0  0  0  0  0  0  0  0
    2.6560   -8.6460    0.0000 C   0  0  2  0  0  0  0  0  0  0  0  0
    2.1710   -8.3700    0.0000 C   0  0  0  0  0  0  0  0  0  0  0  0
    1.6880   -8.6470    0.0000 C   0  0  0  0  0  0  0  0  0  0  0  0
    1.6910   -9.2090    0.0000 C   0  0  0  0  0  0  0  0  0  0  0  0
    2.1760   -9.4940    0.0000 C   0  0  0  0  0  0  0  0  0  0  0  0
    2.6740  -10.8710    0.0000 O   0  0  0  0  0  0  0  0  0  0  0  0
    6.5210  -10.3070    0.0000 C   0  0  0  0  0  0  0  0  0  0  0  0
    7.0030  -10.5860    0.0000 C   0  0  0  0  0  0  0  0  0  0  0  0
    7.4850  -10.3050    0.0000 C   0  0  0  0  0  0  0  0  0  0  0  0
    7.4840   -9.7460    0.0000 C   0  0  0  0  0  0  0  0  0  0  0  0
    6.9960   -9.4690    0.0000 C   0  0  0  0  0  0  0  0  0  0  0  0
    6.5160   -9.7510    0.0000 C   0  0  0  0  0  0  0  0  0  0  0  0
    5.9920   -9.4290    0.0000 O   0  0  0  0  0  0  0  0  0  0  0  0
    2.6510   -7.6460    0.0000 H   0  0  0  0  0  0  0  0  0  0  0  0
    2.6700  -10.2080    0.0000 H   0  0  0  0  0  0  0  0  0  0  0  0
  1  5  1  6  0  0  0
  5  6  1  0  0  0  0
  5  7  2  0  0  0  0
  2 14  1  0  0  0  0
  8  9  2  0  0  0  0
  9 10  1  0  0  0  0
 10 11  2  0  0  0  0
 11 12  1  0  0  0  0
 12 13  2  0  0  0  0
 13  8  1  0  0  0  0
  8 14  1  0  0  0  0
 14 15  2  0  0  0  0
 14 16  2  0  0  0  0
 17 18  1  0  0  0  0
 17 22  1  0  0  0  0
 18 19  1  0  0  0  0
 19 20  1  0  0  0  0
 20 21  1  0  0  0  0
 21 22  1  0  0  0  0
  6 23  1  0  0  0  0
 18  4  1  0  0  0  0
 17  1  1  0  0  0  0
  1  2  1  0  0  0  0
  2  3  1  0  0  0  0
  3  4  1  0  0  0  0
 24 25  2  0  0  0  0
 25 26  1  0  0  0  0
 26 27  2  0  0  0  0
 27 28  1  0  0  0  0
 28 29  2  0  0  0  0
 29 24  1  0  0  0  0
 11 24  1  0  0  0  0
 12 30  1  0  0  0  0
 30 29  1  0  0  0  0
 18 31  1  1  0  0  0
 17 32  1  1  0  0  0
M  END
>  <ID_NEW>
CPDMM2160

>  <pIC50>
7.468521082957744

$$$$

  -MTS-   10172316422D 0   0.00000     0.00000     0

 35 38  0  0  0  0  0  0  0  0999 V2000
   -6.0290    1.8080    0.0000 S   0  0  0  0  0  0  0  0  0  0  0  0
   -6.7620    1.8120    0.0000 N   0  0  0  0  0  0  0  0  0  0  0  0
   -7.1370    1.1960    0.0000 C   0  0  1  0  0  0  0  0  0  0  0  0
   -6.7790    0.5620    0.0000 C   0  0  0  0  0  0  0  0  0  0  0  0
   -0.8460    1.8370    0.0000 C   0  0  0  0  0  0  0  0  0  0  0  0
   -7.8670    1.2000    0.0000 C   0  0  2  0  0  0  0  0  0  0  0  0
   -7.1170    2.4580    0.0000 C   0  0  0  0  0  0  0  0  0  0  0  0
   -5.2960    1.8080    0.0000 C   0  0  0  0  0  0  0  0  0  0  0  0
   -6.0250    1.0870    0.0000 O   0  0  0  0  0  0  0  0  0  0  0  0
   -6.0290    2.5460    0.0000 O   0  0  0  0  0  0  0  0  0  0  0  0
   -1.5830    1.8250    0.0000 C   0  0  0  0  0  0  0  0  0  0  0  0
   -6.0540    0.5500    0.0000 O   0  0  0  0  0  0  0  0  0  0  0  0
   -3.0710    1.8210    0.0000 C   0  0  0  0  0  0  0  0  0  0  0  0
   -3.8080    1.8210    0.0000 C   0  0  0  0  0  0  0  0  0  0  0  0
   -8.2210    1.8330    0.0000 C   0  0  2  0  0  0  0  0  0  0  0  0
   -7.1500   -0.0750    0.0000 N   0  0  0  0  0  0  0  0  0  0  0  0
   -7.8460    2.4620    0.0000 C   0  0  0  0  0  0  0  0  0  0  0  0
   -4.9210    1.1830    0.0000 C   0  0  0  0  0  0  0  0  0  0  0  0
   -4.9250    2.4620    0.0000 C   0  0  0  0  0  0  0  0  0  0  0  0
   -1.9580    1.2000    0.0000 C   0  0  0  0  0  0  0  0  0  0  0  0
   -1.9710    2.4830    0.0000 C   0  0  0  0  0  0  0  0  0  0  0  0
   -0.3460    1.2580    0.0000 F   0  0  0  0  0  0  0  0  0  0  0  0
   -0.3580    2.4460    0.0000 F   0  0  0  0  0  0  0  0  0  0  0  0
   -0.1710    1.8580    0.0000 F   0  0  0  0  0  0  0  0  0  0  0  0
   -4.1870    2.4580    0.0000 C   0  0  0  0  0  0  0  0  0  0  0  0
   -4.1620    1.1870    0.0000 C   0  0  0  0  0  0  0  0  0  0  0  0
   -2.6870    1.1960    0.0000 C   0  0  0  0  0  0  0  0  0  0  0  0
   -2.7080    2.4710    0.0000 C   0  0  0  0  0  0  0  0  0  0  0  0
   -6.7750   -0.6920    0.0000 O   0  0  0  0  0  0  0  0  0  0  0  0
   -8.2420    0.5620    0.0000 C   0  0  0  0  0  0  0  0  0  0  0  0
   -8.9670    1.8330    0.0000 C   0  0  0  0  0  0  0  0  0  0  0  0
   -8.9790    0.5830    0.0000 C   0  0  0  0  0  0  0  0  0  0  0  0
   -9.3540    1.2210    0.0000 C   0  0  0  0  0  0  0  0  0  0  0  0
   -8.7150    2.7030    0.0000 H   0  0  0  0  0  0  0  0  0  0  0  0
   -7.3730    0.3300    0.0000 H   0  0  0  0  0  0  0  0  0  0  0  0
  2  1  1  0  0  0  0
  3  2  1  0  0  0  0
  3  4  1  1  0  0  0
  5 11  1  0  0  0  0
  6  3  1  0  0  0  0
  7  2  1  0  0  0  0
  8  1  1  0  0  0  0
  9  1  2  0  0  0  0
 10  1  2  0  0  0  0
 11 20  2  0  0  0  0
 12  4  2  0  0  0  0
 13 14  1  0  0  0  0
 14 26  2  0  0  0  0
 15 17  1  0  0  0  0
 16  4  1  0  0  0  0
 17  7  1  0  0  0  0
 18  8  2  0  0  0  0
 19  8  1  0  0  0  0
 20 27  1  0  0  0  0
 21 28  2  0  0  0  0
 22  5  1  0  0  0  0
 23  5  1  0  0  0  0
 24  5  1  0  0  0  0
 25 19  2  0  0  0  0
 26 18  1  0  0  0  0
 27 13  2  0  0  0  0
 28 13  1  0  0  0  0
 29 16  1  0  0  0  0
 30  6  1  0  0  0  0
 31 15  1  0  0  0  0
 32 30  1  0  0  0  0
 33 31  1  0  0  0  0
 25 14  1  0  0  0  0
  6 15  1  0  0  0  0
 33 32  1  0  0  0  0
 21 11  1  0  0  0  0
 15 34  1  6  0  0  0
  6 35  1  6  0  0  0
V    3 M1
V    6 M1
V   15 M1
M  END
>  <ID_NEW>
CPDMM2161

>  <pIC50>
7.467933905189448

$$$$

  -MTS-   10172316422D 0   0.00000     0.00000     0

 32 35  0  0  0  0  0  0  0  0999 V2000
    5.6710   -5.6250    0.0000 C   0  0  0  0  0  0  0  0  0  0  0  0
    6.3290   -5.9970    0.0000 C   0  0  0  0  0  0  0  0  0  0  0  0
    6.9780   -5.6110    0.0000 N   0  0  0  0  0  0  0  0  0  0  0  0
    6.9680   -4.8540    0.0000 C   0  0  0  0  0  0  0  0  0  0  0  0
    6.3080   -4.4860    0.0000 C   0  0  0  0  0  0  0  0  0  0  0  0
    5.6590   -4.8740    0.0000 C   0  0  0  0  0  0  0  0  0  0  0  0
    1.7460   -4.8750    0.0000 C   0  0  0  0  0  0  0  0  0  0  0  0
    1.7460   -5.6330    0.0000 C   0  0  0  0  0  0  0  0  0  0  0  0
    2.3990   -6.0080    0.0000 C   0  0  0  0  0  0  0  0  0  0  0  0
    2.3990   -4.4920    0.0000 C   0  0  0  0  0  0  0  0  0  0  0  0
    3.0530   -4.8750    0.0000 C   0  0  2  0  0  0  0  0  0  0  0  0
    3.0540   -5.6330    0.0000 C   0  0  1  0  0  0  0  0  0  0  0  0
    3.7070   -6.0090    0.0000 C   0  0  0  0  0  0  0  0  0  0  0  0
    4.3630   -5.6310    0.0000 N   0  0  0  0  0  0  0  0  0  0  0  0
    4.3620   -4.8730    0.0000 C   0  0  0  0  0  0  0  0  0  0  0  0
    3.7050   -4.4930    0.0000 C   0  0  0  0  0  0  0  0  0  0  0  0
    3.7070   -6.7680    0.0000 C   0  0  0  0  0  0  0  0  0  0  0  0
    4.3640   -7.1480    0.0000 O   0  0  0  0  0  0  0  0  0  0  0  0
    5.0190   -6.0110    0.0000 S   0  0  0  0  0  0  0  0  0  0  0  0
    4.4750   -6.5420    0.0000 O   0  0  0  0  0  0  0  0  0  0  0  0
    5.5540   -6.5420    0.0000 O   0  0  0  0  0  0  0  0  0  0  0  0
    7.6180   -4.4700    0.0000 O   0  0  0  0  0  0  0  0  0  0  0  0
    8.2800   -4.8390    0.0000 C   0  0  0  0  0  0  0  0  0  0  0  0
    8.2880   -5.5970    0.0000 C   0  0  0  0  0  0  0  0  0  0  0  0
    8.9480   -5.9660    0.0000 C   0  0  0  0  0  0  0  0  0  0  0  0
    9.6000   -5.5770    0.0000 C   0  0  0  0  0  0  0  0  0  0  0  0
    9.5860   -4.8150    0.0000 C   0  0  0  0  0  0  0  0  0  0  0  0
    8.9290   -4.4490    0.0000 C   0  0  0  0  0  0  0  0  0  0  0  0
    3.0500   -7.1460    0.0000 N   0  0  0  0  0  0  0  0  0  0  0  0
    3.0490   -7.9050    0.0000 O   0  0  0  0  0  0  0  0  0  0  0  0
    3.0530   -6.6330    0.0000 H   0  0  0  0  0  0  0  0  0  0  0  0
    3.0530   -3.8750    0.0000 H   0  0  0  0  0  0  0  0  0  0  0  0
  4 22  1  0  0  0  0
 22 23  1  0  0  0  0
  3  4  2  0  0  0  0
 23 24  2  0  0  0  0
  7 10  1  0  0  0  0
 24 25  1  0  0  0  0
  8  9  1  0  0  0  0
 25 26  2  0  0  0  0
 12  9  1  0  0  0  0
 26 27  1  0  0  0  0
 11 10  1  0  0  0  0
 27 28  2  0  0  0  0
 28 23  1  0  0  0  0
 11 12  1  0  0  0  0
  4  5  1  0  0  0  0
  2  3  1  0  0  0  0
 11 16  1  0  0  0  0
 12 13  1  0  0  0  0
 13 14  1  0  0  0  0
 14 15  1  0  0  0  0
 15 16  1  0  0  0  0
  5  6  2  0  0  0  0
 13 17  1  0  0  0  0
 17 18  2  0  0  0  0
  6  1  1  0  0  0  0
 14 19  1  0  0  0  0
 19  1  1  0  0  0  0
 19 20  2  0  0  0  0
  7  8  1  0  0  0  0
 19 21  2  0  0  0  0
  1  2  2  0  0  0  0
 17 29  1  0  0  0  0
 29 30  1  0  0  0  0
 12 31  1  6  0  0  0
 11 32  1  6  0  0  0
V   11 M1
V   12 M1
M  END
>  <ID_NEW>
CPDMM2162

>  <pIC50>
7.463649902197356

$$$$

  SciTegic12180813012D

 32 36  0  0  0  0            999 V2000
   -5.9958    1.7958    0.0000 S   0  0
   -6.7292    1.7958    0.0000 N   0  0
   -7.1042    1.1625    0.0000 C   0  0
   -4.1208    1.1958    0.0000 C   0  0
   -5.2458    1.8083    0.0000 C   0  0
   -7.8417    1.1583    0.0000 C   0  0
   -6.7292    0.5125    0.0000 C   0  0
   -3.0208    1.7083    0.0000 O   0  0
   -3.7500    1.8333    0.0000 C   0  0
   -3.6083    0.6583    0.0000 C   0  0
   -4.8708    1.1833    0.0000 C   0  0
   -2.9333    0.9750    0.0000 C   0  0
   -8.2167    1.7958    0.0000 C   0  0
   -7.0958    2.4333    0.0000 C   0  0
   -5.9750    1.0583    0.0000 O   0  0
   -6.0042    2.5458    0.0000 O   0  0
   -8.2042    0.5125    0.0000 C   0  0
   -7.8417    2.4333    0.0000 C   0  0
   -5.9958    0.5250    0.0000 O   0  0
   -8.9542    1.7958    0.0000 C   0  0
   -4.8958    2.4625    0.0000 C   0  0
   -4.1333    2.4750    0.0000 C   0  0
   -7.0917   -0.1125    0.0000 N   0  0
   -9.3167    1.1583    0.0000 C   0  0
   -8.9417    0.5125    0.0000 C   0  0
   -6.7333   -0.7542    0.0000 O   0  0
   -3.6583   -0.0792    0.0000 C   0  0
  -10.0542    1.1500    0.0000 O   0  0
   -2.3208    0.5583    0.0000 C   0  0
  -10.4125    0.5083    0.0000 C   0  0
   -3.0500   -0.5042    0.0000 C   0  0
   -2.3750   -0.1792    0.0000 C   0  0
  2  1  1  0
  3  2  1  0
  4 11  1  0
  5  1  1  0
  6  3  1  0
  7  3  1  0
  8  9  1  0
  9 22  1  0
 10  4  1  0
 11  5  2  0
 12 10  2  0
 13 18  1  0
 14  2  1  0
 15  1  2  0
 16  1  2  0
 17  6  2  0
 18 14  1  0
 19  7  2  0
 20 13  2  0
 21  5  1  0
 22 21  2  0
 23  7  1  0
 24 20  1  0
 25 17  1  0
 26 23  1  0
 27 10  1  0
 28 24  1  0
 29 12  1  0
 30 28  1  0
 31 27  2  0
 32 31  1  0
 13  6  1  0
  9  4  2  0
 24 25  2  0
  8 12  1  0
 29 32  2  0
M  END
>  <ID_NEW>
CPDMM2163

>  <pIC50>
7.431798275933005

$$$$

  SciTegic12180812152D

 25 26  0  0  0  0            999 V2000
    4.6083   -3.2667    0.0000 S   0  0
    4.0750   -2.7333    0.0000 N   0  0
    4.0792   -1.9792    0.0000 C   0  0
    4.7292   -1.6000    0.0000 C   0  0
    5.1417   -3.8000    0.0000 C   0  0
    3.9542   -3.6417    0.0000 O   0  0
    5.2583   -2.8875    0.0000 O   0  0
    4.9250   -0.8708    0.0000 O   0  0
    6.2055   -4.8669    0.0000 C   0  0
    6.7375   -5.4000    0.0000 C   0  0
    5.3792   -1.9750    0.0000 N   0  0
    5.8627   -3.6065    0.0000 C   0  0
    4.9419   -4.5305    0.0000 C   0  0
    5.4744   -5.0594    0.0000 C   0  0
    6.3968   -4.1361    0.0000 C   0  0
    6.5372   -6.1250    0.0000 C   0  0
    7.4577   -5.2034    0.0000 C   0  0
    3.3250   -1.9750    0.0000 C   0  0
    3.5417   -1.4417    0.0000 C   0  0
    7.7986   -6.4664    0.0000 C   0  0
    3.4208   -3.1083    0.0000 C   0  0
    7.9903   -5.7328    0.0000 C   0  0
    7.0684   -6.6578    0.0000 C   0  0
    8.3292   -6.9958    0.0000 Cl  0  0
    6.0333   -1.5958    0.0000 O   0  0
  3  4  1  0
  3 19  1  0
  3 18  1  0
  3  2  1  0
  2 21  1  0
  2  1  1  0
  1  5  1  0
  1  6  2  0
  1  7  2  0
  5 13  2  0
 13 14  1  0
 14  9  2  0
  9 15  1  0
 15 12  2  0
 12  5  1  0
  9 10  1  0
 10 16  2  0
 16 23  1  0
 23 20  2  0
 20 22  1  0
 22 17  2  0
 17 10  1  0
 20 24  1  0
  4  8  2  0
  4 11  1  0
 11 25  1  0
M  END
>  <ID_NEW>
CPDMM2164

>  <pIC50>
7.3979400086720375

$$$$

  -MTS-   10172316422D 0   0.00000     0.00000     0

 30 33  0  0  1  0  0  0  0  0999 V2000
   -5.7060    2.6540    0.0000 C   0  0  0  0  0  0  0  0  0  0  0  0
   -5.7070    1.9140    0.0000 C   0  0  0  0  0  0  0  0  0  0  0  0
   -5.0710    1.5470    0.0000 C   0  0  0  0  0  0  0  0  0  0  0  0
   -5.0730    3.0210    0.0000 C   0  0  0  0  0  0  0  0  0  0  0  0
   -4.4370    2.6580    0.0000 C   0  0  0  0  0  0  0  0  0  0  0  0
   -4.4330    1.9120    0.0000 C   0  0  0  0  0  0  0  0  0  0  0  0
   -3.7890    1.5470    0.0000 C   0  0  2  0  0  0  0  0  0  0  0  0
   -3.1520    1.9180    0.0000 N   0  0  0  0  0  0  0  0  0  0  0  0
   -3.1550    2.6600    0.0000 C   0  0  0  0  0  0  0  0  0  0  0  0
   -3.8000    3.0300    0.0000 C   0  0  0  0  0  0  0  0  0  0  0  0
   -3.7910    0.8090    0.0000 C   0  0  0  0  0  0  0  0  0  0  0  0
   -4.4240    0.4370    0.0000 N   0  0  0  0  0  0  0  0  0  0  0  0
   -3.1530    0.4410    0.0000 O   0  0  0  0  0  0  0  0  0  0  0  0
   -2.5170    1.5540    0.0000 S   0  0  0  0  0  0  0  0  0  0  0  0
   -1.8870    1.9250    0.0000 C   0  0  0  0  0  0  0  0  0  0  0  0
   -3.0420    1.0330    0.0000 O   0  0  0  0  0  0  0  0  0  0  0  0
   -2.0000    1.0330    0.0000 O   0  0  0  0  0  0  0  0  0  0  0  0
   -1.2460    1.5590    0.0000 C   0  0  0  0  0  0  0  0  0  0  0  0
   -0.6130    1.9290    0.0000 N   0  0  0  0  0  0  0  0  0  0  0  0
   -0.6170    2.6640    0.0000 C   0  0  0  0  0  0  0  0  0  0  0  0
   -1.2600    3.0310    0.0000 C   0  0  0  0  0  0  0  0  0  0  0  0
   -1.8900    2.6580    0.0000 C   0  0  0  0  0  0  0  0  0  0  0  0
    0.0150    3.0350    0.0000 O   0  0  0  0  0  0  0  0  0  0  0  0
    0.6460    2.6710    0.0000 C   0  0  0  0  0  0  0  0  0  0  0  0
    0.6420    1.9370    0.0000 C   0  0  0  0  0  0  0  0  0  0  0  0
    1.2760    1.5730    0.0000 C   0  0  0  0  0  0  0  0  0  0  0  0
    1.9080    1.9360    0.0000 C   0  0  0  0  0  0  0  0  0  0  0  0
    1.9060    2.6730    0.0000 C   0  0  0  0  0  0  0  0  0  0  0  0
    1.2760    3.0340    0.0000 C   0  0  0  0  0  0  0  0  0  0  0  0
   -4.4180   -0.2970    0.0000 O   0  0  0  0  0  0  0  0  0  0  0  0
  1  2  2  0  0  0  0
 14 15  1  0  0  0  0
  5  4  2  0  0  0  0
 14 16  2  0  0  0  0
  4  1  1  0  0  0  0
 14 17  2  0  0  0  0
  5 10  1  0  0  0  0
 15 18  2  0  0  0  0
  6  7  1  0  0  0  0
 18 19  1  0  0  0  0
  7  8  1  0  0  0  0
 19 20  2  0  0  0  0
  8  9  1  0  0  0  0
 20 21  1  0  0  0  0
  9 10  1  0  0  0  0
 21 22  2  0  0  0  0
 22 15  1  0  0  0  0
  5  6  1  0  0  0  0
 20 23  1  0  0  0  0
  7 11  1  6  0  0  0
 23 24  1  0  0  0  0
 24 25  2  0  0  0  0
  2  3  1  0  0  0  0
 25 26  1  0  0  0  0
 11 12  1  0  0  0  0
 26 27  2  0  0  0  0
 11 13  2  0  0  0  0
 27 28  1  0  0  0  0
  3  6  2  0  0  0  0
 28 29  2  0  0  0  0
 29 24  1  0  0  0  0
 12 30  1  0  0  0  0
  8 14  1  0  0  0  0
M  END
>  <ID_NEW>
CPDMM2165

>  <pIC50>
7.3979400086720375

$$$$

  -MTS-   10172316422D 0   0.00000     0.00000     0

 33 36  0  0  1  0  0  0  0  0999 V2000
   -0.2140   -1.9750    0.0000 C   0  0  0  0  0  0  0  0  0  0  0  0
   -0.2150   -2.8020    0.0000 C   0  0  0  0  0  0  0  0  0  0  0  0
    0.5000   -3.2150    0.0000 C   0  0  0  0  0  0  0  0  0  0  0  0
    0.4980   -1.5620    0.0000 C   0  0  0  0  0  0  0  0  0  0  0  0
    1.2130   -1.9710    0.0000 C   0  0  0  0  0  0  0  0  0  0  0  0
    1.2120   -2.8000    0.0000 C   0  0  0  0  0  0  0  0  0  0  0  0
    1.9250   -3.2130    0.0000 C   0  0  1  0  0  0  0  0  0  0  0  0
    2.6440   -2.8020    0.0000 N   0  0  0  0  0  0  0  0  0  0  0  0
    2.6450   -1.9730    0.0000 C   0  0  0  0  0  0  0  0  0  0  0  0
    1.9270   -1.5560    0.0000 C   0  0  0  0  0  0  0  0  0  0  0  0
    1.9230   -4.0380    0.0000 C   0  0  0  0  0  0  0  0  0  0  0  0
    1.2070   -4.4480    0.0000 N   0  0  0  0  0  0  0  0  0  0  0  0
    2.6360   -4.4520    0.0000 O   0  0  0  0  0  0  0  0  0  0  0  0
    1.2050   -5.2730    0.0000 O   0  0  0  0  0  0  0  0  0  0  0  0
    3.3570   -3.2160    0.0000 S   0  0  0  0  0  0  0  0  0  0  0  0
    3.7620   -2.4960    0.0000 O   0  0  0  0  0  0  0  0  0  0  0  0
    2.9370   -3.9250    0.0000 O   0  0  0  0  0  0  0  0  0  0  0  0
    4.0670   -3.6250    0.0000 C   0  0  0  0  0  0  0  0  0  0  0  0
    4.0650   -4.4450    0.0000 C   0  0  0  0  0  0  0  0  0  0  0  0
    4.7730   -4.8530    0.0000 N   0  0  0  0  0  0  0  0  0  0  0  0
    5.4830   -4.4430    0.0000 C   0  0  0  0  0  0  0  0  0  0  0  0
    5.4800   -3.6200    0.0000 C   0  0  0  0  0  0  0  0  0  0  0  0
    4.7700   -3.2150    0.0000 C   0  0  0  0  0  0  0  0  0  0  0  0
    6.1990   -4.8540    0.0000 O   0  0  0  0  0  0  0  0  0  0  0  0
    6.9080   -4.4330    0.0000 C   0  0  0  0  0  0  0  0  0  0  0  0
    7.6270   -4.8400    0.0000 C   0  0  0  0  0  0  0  0  0  0  0  0
    8.3360   -4.4200    0.0000 C   0  0  0  0  0  0  0  0  0  0  0  0
    8.3270   -3.5950    0.0000 C   0  0  0  0  0  0  0  0  0  0  0  0
    7.6030   -3.1910    0.0000 C   0  0  0  0  0  0  0  0  0  0  0  0
    6.8970   -3.6130    0.0000 C   0  0  0  0  0  0  0  0  0  0  0  0
    9.0360   -3.1730    0.0000 O   0  0  0  0  0  0  0  0  0  0  0  0
    9.7560   -3.5760    0.0000 C   0  0  0  0  0  0  0  0  0  0  0  0
    9.7670   -4.4010    0.0000 C   0  0  0  0  0  0  0  0  0  0  0  0
 15 17  2  0  0  0  0
  5 10  1  0  0  0  0
 15 18  1  0  0  0  0
  6  7  1  0  0  0  0
 18 19  2  0  0  0  0
  7  8  1  0  0  0  0
 19 20  1  0  0  0  0
  8  9  1  0  0  0  0
 20 21  2  0  0  0  0
  9 10  1  0  0  0  0
 21 22  1  0  0  0  0
  5  6  1  0  0  0  0
 22 23  2  0  0  0  0
 23 18  1  0  0  0  0
  7 11  1  1  0  0  0
 21 24  1  0  0  0  0
 24 25  1  0  0  0  0
 11 12  1  0  0  0  0
 25 26  2  0  0  0  0
  2  3  1  0  0  0  0
 26 27  1  0  0  0  0
 11 13  2  0  0  0  0
 27 28  2  0  0  0  0
  3  6  2  0  0  0  0
 28 29  1  0  0  0  0
 12 14  1  0  0  0  0
 29 30  2  0  0  0  0
 30 25  1  0  0  0  0
  1  2  2  0  0  0  0
 28 31  1  0  0  0  0
  8 15  1  0  0  0  0
 31 32  1  0  0  0  0
  5  4  2  0  0  0  0
 15 16  2  0  0  0  0
  4  1  1  0  0  0  0
 32 33  1  0  0  0  0
M  END
>  <ID_NEW>
CPDMM2166

>  <pIC50>
7.3979400086720375

$$$$

  -MTS-   10172316422D 0   0.00000     0.00000     0

 33 36  0  0  1  0  0  0  0  0999 V2000
   -1.3350   -4.2510    0.0000 C   0  0  0  0  0  0  0  0  0  0  0  0
   -1.3140   -5.0060    0.0000 C   0  0  0  0  0  0  0  0  0  0  0  0
   -0.6580   -5.3570    0.0000 C   0  0  0  0  0  0  0  0  0  0  0  0
   -0.6990   -3.8490    0.0000 C   0  0  0  0  0  0  0  0  0  0  0  0
   -0.0410   -4.2120    0.0000 C   0  0  1  0  0  0  0  0  0  0  0  0
   -0.0140   -4.9710    0.0000 C   0  0  2  0  0  0  0  0  0  0  0  0
    0.6400   -5.3190    0.0000 C   0  0  2  0  0  0  0  0  0  0  0  0
    1.2850   -4.9260    0.0000 N   0  0  0  0  0  0  0  0  0  0  0  0
    1.2650   -4.1780    0.0000 C   0  0  0  0  0  0  0  0  0  0  0  0
    0.5990   -3.8190    0.0000 C   0  0  0  0  0  0  0  0  0  0  0  0
    0.6640   -6.0700    0.0000 C   0  0  0  0  0  0  0  0  0  0  0  0
    0.0220   -6.4690    0.0000 N   0  0  0  0  0  0  0  0  0  0  0  0
    1.3240   -6.4260    0.0000 O   0  0  0  0  0  0  0  0  0  0  0  0
    1.9430   -5.2810    0.0000 S   0  0  0  0  0  0  0  0  0  0  0  0
    2.5800   -4.8850    0.0000 C   0  0  0  0  0  0  0  0  0  0  0  0
    1.3010   -5.6760    0.0000 O   0  0  0  0  0  0  0  0  0  0  0  0
    2.3340   -5.9160    0.0000 O   0  0  0  0  0  0  0  0  0  0  0  0
    3.2420   -5.2360    0.0000 C   0  0  0  0  0  0  0  0  0  0  0  0
    3.8780   -4.8410    0.0000 C   0  0  0  0  0  0  0  0  0  0  0  0
    3.8480   -4.0810    0.0000 C   0  0  0  0  0  0  0  0  0  0  0  0
    3.1820   -3.7380    0.0000 C   0  0  0  0  0  0  0  0  0  0  0  0
    2.5540   -4.1380    0.0000 C   0  0  0  0  0  0  0  0  0  0  0  0
    0.0450   -7.2190    0.0000 O   0  0  0  0  0  0  0  0  0  0  0  0
    4.4890   -3.6720    0.0000 O   0  0  0  0  0  0  0  0  0  0  0  0
    5.1640   -4.0240    0.0000 C   0  0  0  0  0  0  0  0  0  0  0  0
    5.1940   -4.7830    0.0000 C   0  0  0  0  0  0  0  0  0  0  0  0
    5.8680   -5.1340    0.0000 C   0  0  0  0  0  0  0  0  0  0  0  0
    6.5110   -4.7260    0.0000 C   0  0  0  0  0  0  0  0  0  0  0  0
    6.4750   -3.9620    0.0000 C   0  0  0  0  0  0  0  0  0  0  0  0
    5.8010   -3.6140    0.0000 C   0  0  0  0  0  0  0  0  0  0  0  0
    7.1870   -5.0760    0.0000 F   0  0  0  0  0  0  0  0  0  0  0  0
    0.0120   -5.9710    0.0000 H   0  0  0  0  0  0  0  0  0  0  0  0
   -0.0640   -3.2130    0.0000 H   0  0  0  0  0  0  0  0  0  0  0  0
 14 17  2  0  0  0  0
  5 10  1  0  0  0  0
 15 18  2  0  0  0  0
  6  7  1  0  0  0  0
 18 19  1  0  0  0  0
  7  8  1  0  0  0  0
 19 20  2  0  0  0  0
  8  9  1  0  0  0  0
 20 21  1  0  0  0  0
  9 10  1  0  0  0  0
 21 22  2  0  0  0  0
 22 15  1  0  0  0  0
  5  6  1  0  0  0  0
  7 11  1  6  0  0  0
  1  2  1  0  0  0  0
 11 12  1  0  0  0  0
 11 13  2  0  0  0  0
  1  4  1  0  0  0  0
 12 23  1  0  0  0  0
 20 24  1  0  0  0  0
 24 25  1  0  0  0  0
  8 14  1  0  0  0  0
 25 26  2  0  0  0  0
  2  3  1  0  0  0  0
 26 27  1  0  0  0  0
 14 15  1  0  0  0  0
 27 28  2  0  0  0  0
  3  6  1  0  0  0  0
 28 29  1  0  0  0  0
 14 16  2  0  0  0  0
 29 30  2  0  0  0  0
 30 25  1  0  0  0  0
  5  4  1  0  0  0  0
 28 31  1  0  0  0  0
  6 32  1  1  0  0  0
  5 33  1  1  0  0  0
M  END
>  <ID_NEW>
CPDMM2167

>  <pIC50>
7.3979400086720375

$$$$

  -MTS-   10172316422D 0   0.00000     0.00000     0

 34 37  0  0  0  0  0  0  0  0999 V2000
   -6.0290    1.8080    0.0000 S   0  0  0  0  0  0  0  0  0  0  0  0
   -6.7620    1.8120    0.0000 N   0  0  0  0  0  0  0  0  0  0  0  0
   -7.1370    1.1960    0.0000 C   0  0  1  0  0  0  0  0  0  0  0  0
   -6.7790    0.5620    0.0000 C   0  0  0  0  0  0  0  0  0  0  0  0
   -7.8670    1.2000    0.0000 C   0  0  2  0  0  0  0  0  0  0  0  0
   -7.1170    2.4580    0.0000 C   0  0  0  0  0  0  0  0  0  0  0  0
   -5.2830    1.8080    0.0000 C   0  0  0  0  0  0  0  0  0  0  0  0
   -6.0170    2.5580    0.0000 O   0  0  0  0  0  0  0  0  0  0  0  0
   -6.0170    1.0830    0.0000 O   0  0  0  0  0  0  0  0  0  0  0  0
   -6.0540    0.5500    0.0000 O   0  0  0  0  0  0  0  0  0  0  0  0
   -3.0460    1.8250    0.0000 C   0  0  0  0  0  0  0  0  0  0  0  0
   -3.7960    1.8210    0.0000 C   0  0  0  0  0  0  0  0  0  0  0  0
   -8.2210    1.8330    0.0000 C   0  0  2  0  0  0  0  0  0  0  0  0
   -1.5580    1.8460    0.0000 C   0  0  0  0  0  0  0  0  0  0  0  0
   -7.1500   -0.0750    0.0000 N   0  0  0  0  0  0  0  0  0  0  0  0
   -7.8460    2.4620    0.0000 C   0  0  0  0  0  0  0  0  0  0  0  0
   -4.9210    2.4580    0.0000 C   0  0  0  0  0  0  0  0  0  0  0  0
   -4.9120    1.1830    0.0000 C   0  0  0  0  0  0  0  0  0  0  0  0
   -2.6750    1.1960    0.0000 C   0  0  0  0  0  0  0  0  0  0  0  0
   -4.1710    2.4580    0.0000 C   0  0  0  0  0  0  0  0  0  0  0  0
   -2.6830    2.4710    0.0000 C   0  0  0  0  0  0  0  0  0  0  0  0
   -4.1540    1.1960    0.0000 C   0  0  0  0  0  0  0  0  0  0  0  0
   -1.9250    1.2080    0.0000 C   0  0  0  0  0  0  0  0  0  0  0  0
   -1.9460    2.4830    0.0000 C   0  0  0  0  0  0  0  0  0  0  0  0
   -0.8080    1.8460    0.0000 C   0  0  0  0  0  0  0  0  0  0  0  0
   -6.7750   -0.6920    0.0000 O   0  0  0  0  0  0  0  0  0  0  0  0
   -8.2420    0.5620    0.0000 C   0  0  0  0  0  0  0  0  0  0  0  0
   -8.9670    1.8330    0.0000 C   0  0  0  0  0  0  0  0  0  0  0  0
   -0.4460    2.4960    0.0000 C   0  0  0  0  0  0  0  0  0  0  0  0
   -0.4330    1.2210    0.0000 C   0  0  0  0  0  0  0  0  0  0  0  0
   -8.9790    0.5830    0.0000 C   0  0  0  0  0  0  0  0  0  0  0  0
   -9.3540    1.2210    0.0000 C   0  0  0  0  0  0  0  0  0  0  0  0
   -8.7150    2.7030    0.0000 H   0  0  0  0  0  0  0  0  0  0  0  0
   -7.3730    0.3300    0.0000 H   0  0  0  0  0  0  0  0  0  0  0  0
  2  1  1  0  0  0  0
  3  2  1  0  0  0  0
  3  4  1  1  0  0  0
  5  3  1  0  0  0  0
  6  2  1  0  0  0  0
  7  1  1  0  0  0  0
  8  1  2  0  0  0  0
  9  1  2  0  0  0  0
 10  4  2  0  0  0  0
 11 12  1  0  0  0  0
 12 20  1  0  0  0  0
 13 16  1  0  0  0  0
 14 24  1  0  0  0  0
 15  4  1  0  0  0  0
 16  6  1  0  0  0  0
 17  7  1  0  0  0  0
 18  7  2  0  0  0  0
 19 11  2  0  0  0  0
 20 17  2  0  0  0  0
 21 11  1  0  0  0  0
 22 18  1  0  0  0  0
 23 19  1  0  0  0  0
 24 21  2  0  0  0  0
 25 14  1  0  0  0  0
 26 15  1  0  0  0  0
 27  5  1  0  0  0  0
 28 13  1  0  0  0  0
 29 25  1  0  0  0  0
 30 25  1  0  0  0  0
 31 27  1  0  0  0  0
 32 28  1  0  0  0  0
 12 22  2  0  0  0  0
  5 13  1  0  0  0  0
 32 31  1  0  0  0  0
 14 23  2  0  0  0  0
 13 33  1  6  0  0  0
  5 34  1  6  0  0  0
V    3 M1
V    5 M1
V   13 M1
M  END
>  <ID_NEW>
CPDMM2168

>  <pIC50>
7.366531544420413

$$$$

  SciTegic12180812502D

 31 34  0  0  0  0            999 V2000
    0.3578    2.3134    0.0000 C   0  0
   -0.0631    3.0257    0.0000 C   0  0
   -0.8885    3.0163    0.0000 C   0  0
   -1.2940    2.2953    0.0000 C   0  0
   -0.8680    1.5824    0.0000 C   0  0
   -0.0440    1.5953    0.0000 C   0  0
    1.1828    2.3231    0.0000 C   0  0
    1.6004    1.6076    0.0000 C   0  0
    2.4217    1.6153    0.0000 C   0  0
    2.8296    2.3328    0.0000 C   0  0
    2.4099    3.0442    0.0000 C   0  0
    1.5823    3.0381    0.0000 C   0  0
    3.6546    2.3394    0.0000 Cl  0  0
   -2.1189    2.2845    0.0000 S   0  0
   -1.9159    3.0841    0.0000 O   0  0
   -2.9330    2.1503    0.0000 N   0  0
   -5.8306    3.3000    0.0000 C   0  0
   -5.8318    2.4727    0.0000 C   0  0
   -5.1169    2.0598    0.0000 C   0  0
   -5.1187    3.7128    0.0000 C   0  0
   -4.3985    2.4756    0.0000 C   0  0
   -4.4034    3.3037    0.0000 C   0  0
   -3.7563    3.8296    0.0000 C   0  0
   -3.7423    1.9611    0.0000 C   0  0
   -2.9441    3.6553    0.0000 C   0  0
   -2.5793    2.9089    0.0000 C   0  0
   -3.9188    1.1552    0.0000 C   0  0
   -4.7049    0.9051    0.0000 O   0  0
   -2.3678    1.4979    0.0000 O   0  0
   -3.3091    0.5994    0.0000 N   0  0
   -2.5229    0.8495    0.0000 O   0  0
  1  2  2  0
  2  3  1  0
  3  4  2  0
  4  5  1  0
  5  6  2  0
  6  1  1  0
  1  7  1  0
  7  8  1  0
  7 12  2  0
  8  9  2  0
  9 10  1  0
 10 11  2  0
 11 12  1  0
 10 13  1  0
  4 14  1  0
 14 15  2  0
 14 16  1  0
 17 18  2  0
 18 19  1  0
 19 21  2  0
 22 20  2  0
 20 17  1  0
 21 22  1  0
 22 23  1  0
 21 24  1  0
 23 25  1  0
 24 16  1  0
 25 26  1  0
 16 26  1  0
 24 27  1  0
 27 28  2  0
 14 29  2  0
 27 30  1  0
 30 31  1  0
M  END
>  <ID_NEW>
CPDMM2169

>  <pIC50>
7.350655403852585

$$$$

  -MTS-   10172316422D 0   0.00000     0.00000     0

 29 32  0  0  1  0  0  0  0  0999 V2000
    6.7440   -5.2490    0.0000 N   0  0  0  0  0  0  0  0  0  0  0  0
    7.3930   -5.6260    0.0000 C   0  0  0  0  0  0  0  0  0  0  0  0
    8.0400   -5.2480    0.0000 C   0  0  0  0  0  0  0  0  0  0  0  0
    8.0390   -4.5040    0.0000 O   0  0  0  0  0  0  0  0  0  0  0  0
    7.3850   -4.1300    0.0000 C   0  0  0  0  0  0  0  0  0  0  0  0
    6.7450   -4.5030    0.0000 C   0  0  0  0  0  0  0  0  0  0  0  0
    0.8900   -5.6370    0.0000 C   0  0  0  0  0  0  0  0  0  0  0  0
    0.8890   -6.3940    0.0000 C   0  0  0  0  0  0  0  0  0  0  0  0
    1.5410   -6.7690    0.0000 C   0  0  0  0  0  0  0  0  0  0  0  0
    1.5400   -5.2620    0.0000 C   0  0  0  0  0  0  0  0  0  0  0  0
    2.1880   -5.6340    0.0000 C   0  0  0  0  0  0  0  0  0  0  0  0
    2.1920   -6.3960    0.0000 C   0  0  0  0  0  0  0  0  0  0  0  0
    2.8530   -6.7700    0.0000 C   0  0  1  0  0  0  0  0  0  0  0  0
    3.5020   -6.3900    0.0000 N   0  0  0  0  0  0  0  0  0  0  0  0
    3.4990   -5.6320    0.0000 C   0  0  0  0  0  0  0  0  0  0  0  0
    2.8410   -5.2540    0.0000 C   0  0  0  0  0  0  0  0  0  0  0  0
    2.8510   -7.5240    0.0000 C   0  0  0  0  0  0  0  0  0  0  0  0
    2.2010   -7.9050    0.0000 N   0  0  0  0  0  0  0  0  0  0  0  0
    3.5010   -7.9010    0.0000 O   0  0  0  0  0  0  0  0  0  0  0  0
    4.1540   -6.7620    0.0000 S   0  0  0  0  0  0  0  0  0  0  0  0
    4.7960   -6.3830    0.0000 C   0  0  0  0  0  0  0  0  0  0  0  0
    3.6170   -7.2960    0.0000 O   0  0  0  0  0  0  0  0  0  0  0  0
    4.6830   -7.2960    0.0000 O   0  0  0  0  0  0  0  0  0  0  0  0
    5.4540   -6.7570    0.0000 C   0  0  0  0  0  0  0  0  0  0  0  0
    6.0990   -6.3790    0.0000 N   0  0  0  0  0  0  0  0  0  0  0  0
    6.0950   -5.6280    0.0000 C   0  0  0  0  0  0  0  0  0  0  0  0
    5.4400   -5.2530    0.0000 C   0  0  0  0  0  0  0  0  0  0  0  0
    4.7930   -5.6330    0.0000 C   0  0  0  0  0  0  0  0  0  0  0  0
    2.2070   -8.6550    0.0000 O   0  0  0  0  0  0  0  0  0  0  0  0
  3  4  1  0  0  0  0
  4  5  1  0  0  0  0
  5  6  1  0  0  0  0
  6  1  1  0  0  0  0
  1  2  1  0  0  0  0
  2  3  1  0  0  0  0
 17 19  2  0  0  0  0
  9 12  2  0  0  0  0
 18 29  1  0  0  0  0
 14 20  1  0  0  0  0
  7  8  2  0  0  0  0
 20 21  1  0  0  0  0
 11 10  2  0  0  0  0
 20 22  2  0  0  0  0
 10  7  1  0  0  0  0
 20 23  2  0  0  0  0
 11 16  1  0  0  0  0
 21 24  2  0  0  0  0
 12 13  1  0  0  0  0
 24 25  1  0  0  0  0
 13 14  1  0  0  0  0
 25 26  2  0  0  0  0
 14 15  1  0  0  0  0
 26 27  1  0  0  0  0
 15 16  1  0  0  0  0
 27 28  2  0  0  0  0
 28 21  1  0  0  0  0
 11 12  1  0  0  0  0
 13 17  1  1  0  0  0
  8  9  1  0  0  0  0
 17 18  1  0  0  0  0
 26  1  1  0  0  0  0
M  END
>  <ID_NEW>
CPDMM2170

>  <pIC50>
7.30102999566398

$$$$

  -MTS-   10172316422D 0   0.00000     0.00000     0

 36 40  0  0  0  0  0  0  0  0999 V2000
   -2.1120    2.9540    0.0000 S   0  0  0  0  0  0  0  0  0  0  0  0
   -2.9330    2.9580    0.0000 N   0  0  0  0  0  0  0  0  0  0  0  0
   -3.3540    2.2710    0.0000 C   0  0  1  0  0  0  0  0  0  0  0  0
   -2.9540    1.5620    0.0000 C   0  0  0  0  0  0  0  0  0  0  0  0
   -4.1710    2.2750    0.0000 C   0  0  2  0  0  0  0  0  0  0  0  0
   -3.3330    3.6830    0.0000 C   0  0  0  0  0  0  0  0  0  0  0  0
   -1.2790    2.9540    0.0000 C   0  0  0  0  0  0  0  0  0  0  0  0
    3.7250    2.9540    0.0000 N   0  0  0  0  0  0  0  0  0  0  0  0
   -2.1080    3.8000    0.0000 O   0  0  0  0  0  0  0  0  0  0  0  0
   -2.1120    2.1330    0.0000 O   0  0  0  0  0  0  0  0  0  0  0  0
    2.8870    2.9540    0.0000 C   0  0  0  0  0  0  0  0  0  0  0  0
   -2.1420    1.5500    0.0000 O   0  0  0  0  0  0  0  0  0  0  0  0
    1.2250    2.9540    0.0000 C   0  0  0  0  0  0  0  0  0  0  0  0
    0.3830    2.9540    0.0000 C   0  0  0  0  0  0  0  0  0  0  0  0
   -4.5670    2.9830    0.0000 C   0  0  2  0  0  0  0  0  0  0  0  0
   -3.3670    0.8500    0.0000 N   0  0  0  0  0  0  0  0  0  0  0  0
   -4.1420    3.6870    0.0000 C   0  0  0  0  0  0  0  0  0  0  0  0
   -0.8670    2.2420    0.0000 C   0  0  0  0  0  0  0  0  0  0  0  0
   -0.8750    3.6830    0.0000 C   0  0  0  0  0  0  0  0  0  0  0  0
    2.4670    2.2460    0.0000 C   0  0  0  0  0  0  0  0  0  0  0  0
    2.4620    3.6830    0.0000 C   0  0  0  0  0  0  0  0  0  0  0  0
   -0.0420    2.2420    0.0000 C   0  0  0  0  0  0  0  0  0  0  0  0
    1.6330    2.2420    0.0000 C   0  0  0  0  0  0  0  0  0  0  0  0
    1.6170    3.6670    0.0000 C   0  0  0  0  0  0  0  0  0  0  0  0
   -0.0420    3.6670    0.0000 C   0  0  0  0  0  0  0  0  0  0  0  0
   -2.9500    0.1580    0.0000 O   0  0  0  0  0  0  0  0  0  0  0  0
    4.2120    3.6420    0.0000 C   0  0  0  0  0  0  0  0  0  0  0  0
    4.2120    2.3000    0.0000 C   0  0  0  0  0  0  0  0  0  0  0  0
   -4.5870    1.5620    0.0000 C   0  0  0  0  0  0  0  0  0  0  0  0
   -5.4000    2.9830    0.0000 C   0  0  0  0  0  0  0  0  0  0  0  0
    5.0080    2.5670    0.0000 C   0  0  0  0  0  0  0  0  0  0  0  0
    5.0000    3.3870    0.0000 C   0  0  0  0  0  0  0  0  0  0  0  0
   -5.4170    1.5830    0.0000 C   0  0  0  0  0  0  0  0  0  0  0  0
   -5.8330    2.3000    0.0000 C   0  0  0  0  0  0  0  0  0  0  0  0
   -5.0580    3.8540    0.0000 H   0  0  0  0  0  0  0  0  0  0  0  0
   -3.6750    1.4060    0.0000 H   0  0  0  0  0  0  0  0  0  0  0  0
 34 30  1  0  0  0  0
 25 14  1  0  0  0  0
  5 15  1  0  0  0  0
 34 33  1  0  0  0  0
 11 20  2  0  0  0  0
 31 32  1  0  0  0  0
  2  1  1  0  0  0  0
  3  2  1  0  0  0  0
  3  4  1  1  0  0  0
  5  3  1  0  0  0  0
  6  2  1  0  0  0  0
  7  1  1  0  0  0  0
  8 11  1  0  0  0  0
  9  1  2  0  0  0  0
 10  1  2  0  0  0  0
 11 21  1  0  0  0  0
 12  4  2  0  0  0  0
 13 14  1  0  0  0  0
 14 22  2  0  0  0  0
 15 17  1  0  0  0  0
 16  4  1  0  0  0  0
 17  6  1  0  0  0  0
 18  7  2  0  0  0  0
 19  7  1  0  0  0  0
 20 23  1  0  0  0  0
 21 24  2  0  0  0  0
 22 18  1  0  0  0  0
 23 13  2  0  0  0  0
 24 13  1  0  0  0  0
 25 19  2  0  0  0  0
 26 16  1  0  0  0  0
 27  8  1  0  0  0  0
 28  8  1  0  0  0  0
 29  5  1  0  0  0  0
 30 15  1  0  0  0  0
 31 28  1  0  0  0  0
 32 27  1  0  0  0  0
 33 29  1  0  0  0  0
 15 35  1  6  0  0  0
  5 36  1  6  0  0  0
V    3 M1
V    5 M1
V   15 M1
M  END
>  <ID_NEW>
CPDMM2171

>  <pIC50>
7.30102999566398

$$$$

  SciTegic12180813012D

 32 35  0  0  0  0            999 V2000
   -5.9708    1.7958    0.0000 S   0  0
   -6.7000    1.7750    0.0000 N   0  0
   -7.0542    1.1375    0.0000 C   0  0
   -7.8042    1.1333    0.0000 C   0  0
   -6.6792    0.4958    0.0000 C   0  0
   -8.1875    1.7500    0.0000 C   0  0
   -7.0792    2.4125    0.0000 C   0  0
   -5.2333    1.7958    0.0000 C   0  0
   -5.9667    1.0458    0.0000 O   0  0
   -5.9833    2.5208    0.0000 O   0  0
   -8.1542    0.4875    0.0000 C   0  0
   -7.8292    2.3958    0.0000 C   0  0
   -5.9583    0.5083    0.0000 O   0  0
   -8.9292    1.7375    0.0000 C   0  0
   -7.0417   -0.1292    0.0000 N   0  0
   -4.8750    2.4333    0.0000 C   0  0
   -4.8500    1.1625    0.0000 C   0  0
   -2.9958    1.8458    0.0000 O   0  0
   -9.2750    1.1083    0.0000 C   0  0
   -3.7375    1.8208    0.0000 C   0  0
   -2.6208    1.2083    0.0000 C   0  0
   -8.8917    0.4750    0.0000 C   0  0
   -1.8583   -0.0542    0.0000 C   0  0
   -4.1250    2.4542    0.0000 C   0  0
   -4.1000    1.1833    0.0000 C   0  0
   -1.4625   -0.7000    0.0000 Cl  0  0
   -6.6917   -0.7750    0.0000 O   0  0
   -2.9750    0.5583    0.0000 C   0  0
   -1.8750    1.2125    0.0000 C   0  0
   -2.5958   -0.0750    0.0000 C   0  0
   -1.4875    0.5875    0.0000 C   0  0
  -10.0083    1.0958    0.0000 O   0  0
  2  1  1  0
  3  2  1  0
  4  3  1  0
  5  3  1  0
  6 12  1  0
  7  2  1  0
  8  1  1  0
  9  1  2  0
 10  1  2  0
 11  4  2  0
 12  7  1  0
 13  5  2  0
 14  6  2  0
 15  5  1  0
 16  8  1  0
 17  8  2  0
 18 20  1  0
 19 14  1  0
 20 24  1  0
 21 18  1  0
 22 11  1  0
 23 30  2  0
 24 16  2  0
 25 17  1  0
 26 23  1  0
 27 15  1  0
 28 21  2  0
 29 21  1  0
 30 28  1  0
 31 29  2  0
 32 19  1  0
 20 25  2  0
  6  4  1  0
 19 22  2  0
 31 23  1  0
M  END
>  <ID_NEW>
CPDMM2172

>  <pIC50>
7.2827155479828996

$$$$

  SciTegic12180813002D

 28 31  0  0  0  0            999 V2000
    7.5677   -4.6830    0.0000 O   0  0
    6.3043   -5.4915    0.0000 C   0  0
    5.1449   -4.5397    0.0000 C   0  0
    7.1893   -3.2315    0.0000 C   0  0
    5.6919   -3.1429    0.0000 C   0  0
    5.0199   -1.8019    0.0000 C   0  0
    5.8453   -0.5494    0.0000 N   0  0
    7.3427   -0.6380    0.0000 C   0  0
    8.0147   -1.9790    0.0000 C   0  0
    3.5225   -1.7133    0.0000 C   0  0
    2.6971   -2.9658    0.0000 O   0  0
    2.8505   -0.3722    0.0000 O   0  0
    6.4084    3.0774    0.0000 C   0  0
    6.4507    1.5780    0.0000 C   0  0
    7.7704    0.8649    0.0000 C   0  0
    9.0478    1.6512    0.0000 C   0  0
    9.0055    3.1506    0.0000 C   0  0
    7.6858    3.8637    0.0000 C   0  0
   10.2829    3.9369    0.0000 C   0  0
   11.6025    3.2238    0.0000 C   0  0
   12.8799    4.0101    0.0000 C   0  0
   12.8377    5.5095    0.0000 C   0  0
   11.5180    6.2226    0.0000 C   0  0
   10.2406    5.4363    0.0000 C   0  0
   14.1150    6.2958    0.0000 Cl  0  0
    5.1733    0.7917    0.0000 S   0  0
    3.7788    0.2391    0.0000 O   0  0
    4.5013    2.1327    0.0000 O   0  0
  8  9  1  0
 10 11  1  0
 10 12  2  0
  6 10  1  0
  2  3  1  0
  1  2  1  0
  3  5  1  0
  4  1  1  0
  4  5  1  0
  4  9  1  0
  5  6  1  0
  6  7  1  0
  7  8  1  0
 20 21  1  0
 16 17  1  0
 21 22  2  0
 14 15  1  0
 22 23  1  0
 17 18  2  0
 23 24  2  0
 24 19  1  0
 18 13  1  0
 22 25  1  0
 13 14  2  0
 14 26  1  0
 17 19  1  0
 15 16  2  0
 26 27  2  0
 19 20  2  0
 26 28  2  0
  7 26  1  0
M  END
>  <ID_NEW>
CPDMM2173

>  <pIC50>
7.267606240177031

$$$$

  -MTS-   10172316422D 0   0.00000     0.00000     0

 36 39  0  0  1  0  0  0  0  0999 V2000
   -5.3670    1.4010    0.0000 C   0  0  0  0  0  0  0  0  0  0  0  0
   -5.3640    2.6910    0.0000 O   0  0  0  0  0  0  0  0  0  0  0  0
   -5.8320    2.0470    0.0000 C   0  0  0  0  0  0  0  0  0  0  0  0
   -4.6090    2.4380    0.0000 C   0  0  1  0  0  0  0  0  0  0  0  0
   -4.6100    1.6460    0.0000 C   0  0  2  0  0  0  0  0  0  0  0  0
   -3.9260    1.2460    0.0000 C   0  0  2  0  0  0  0  0  0  0  0  0
   -3.2370    1.6380    0.0000 N   0  0  0  0  0  0  0  0  0  0  0  0
   -3.2320    2.4340    0.0000 C   0  0  0  0  0  0  0  0  0  0  0  0
   -3.9200    2.8340    0.0000 C   0  0  0  0  0  0  0  0  0  0  0  0
   -3.9270    0.4580    0.0000 C   0  0  0  0  0  0  0  0  0  0  0  0
   -3.2420    0.0580    0.0000 N   0  0  0  0  0  0  0  0  0  0  0  0
   -4.6150    0.0620    0.0000 O   0  0  0  0  0  0  0  0  0  0  0  0
   -1.2200    1.5940    0.0000 C   0  0  0  0  0  0  0  0  0  0  0  0
   -1.9890    1.8010    0.0000 C   0  0  0  0  0  0  0  0  0  0  0  0
   -2.1890    2.5680    0.0000 C   0  0  0  0  0  0  0  0  0  0  0  0
   -1.6290    3.1280    0.0000 C   0  0  0  0  0  0  0  0  0  0  0  0
   -0.8610    2.9250    0.0000 C   0  0  0  0  0  0  0  0  0  0  0  0
   -0.6560    2.1580    0.0000 C   0  0  0  0  0  0  0  0  0  0  0  0
   -2.5490    1.2420    0.0000 S   0  0  0  0  0  0  0  0  0  0  0  0
   -3.0090    0.5990    0.0000 O   0  0  0  0  0  0  0  0  0  0  0  0
   -1.9440    0.7360    0.0000 O   0  0  0  0  0  0  0  0  0  0  0  0
   -0.2960    3.4800    0.0000 O   0  0  0  0  0  0  0  0  0  0  0  0
    0.4680    3.2730    0.0000 C   0  0  0  0  0  0  0  0  0  0  0  0
    1.0320    3.8320    0.0000 C   0  0  0  0  0  0  0  0  0  0  0  0
    1.7960    3.6250    0.0000 C   0  0  0  0  0  0  0  0  0  0  0  0
    2.0000    2.8540    0.0000 C   0  0  0  0  0  0  0  0  0  0  0  0
    1.4360    2.2990    0.0000 C   0  0  0  0  0  0  0  0  0  0  0  0
    0.6720    2.5060    0.0000 C   0  0  0  0  0  0  0  0  0  0  0  0
    2.7650    2.6470    0.0000 O   0  0  0  0  0  0  0  0  0  0  0  0
   -3.2460   -0.7330    0.0000 O   0  0  0  0  0  0  0  0  0  0  0  0
    3.1620    1.9670    0.0000 C   0  0  0  0  0  0  0  0  0  0  0  0
    3.5180    1.3440    0.0000 F   0  0  0  0  0  0  0  0  0  0  0  0
    2.8640    1.1940    0.0000 F   0  0  0  0  0  0  0  0  0  0  0  0
    3.9720    1.8320    0.0000 F   0  0  0  0  0  0  0  0  0  0  0  0
   -4.7180    0.6520    0.0000 H   0  0  0  0  0  0  0  0  0  0  0  0
   -4.7080    3.4330    0.0000 H   0  0  0  0  0  0  0  0  0  0  0  0
  6 10  1  6  0  0  0
 10 11  1  0  0  0  0
 10 12  2  0  0  0  0
  1  5  1  0  0  0  0
  4  2  1  0  0  0  0
  2  3  1  0  0  0  0
  3  1  1  0  0  0  0
  4  9  1  0  0  0  0
  5  6  1  0  0  0  0
  6  7  1  0  0  0  0
  7  8  1  0  0  0  0
  8  9  1  0  0  0  0
  4  5  1  0  0  0  0
 19 21  2  0  0  0  0
 16 17  1  0  0  0  0
 17 22  1  0  0  0  0
 14 15  1  0  0  0  0
 22 23  1  0  0  0  0
 17 18  2  0  0  0  0
 23 24  2  0  0  0  0
 18 13  1  0  0  0  0
 24 25  1  0  0  0  0
 13 14  2  0  0  0  0
 25 26  2  0  0  0  0
 14 19  1  0  0  0  0
 26 27  1  0  0  0  0
 15 16  2  0  0  0  0
 27 28  2  0  0  0  0
 28 23  1  0  0  0  0
 26 29  1  0  0  0  0
 19 20  2  0  0  0  0
  7 19  1  0  0  0  0
 11 30  1  0  0  0  0
 29 31  1  0  0  0  0
 31 32  1  0  0  0  0
 31 33  1  0  0  0  0
 31 34  1  0  0  0  0
  5 35  1  1  0  0  0
  4 36  1  1  0  0  0
M  END
>  <ID_NEW>
CPDMM2174

>  <pIC50>
7.250407148584563

$$$$

  -MTS-   10172316422D 0   0.00000     0.00000     0

 31 33  0  0  1  0  0  0  0  0999 V2000
    0.7690    3.3080    0.0000 N   0  0  0  0  0  0  0  0  0  0  0  0
    1.2870    3.0080    0.0000 C   0  0  0  0  0  0  0  0  0  0  0  0
    1.8100    3.3120    0.0000 C   0  0  0  0  0  0  0  0  0  0  0  0
    2.4130    3.3130    0.0000 C   0  0  0  0  0  0  0  0  0  0  0  0
    2.1080    3.8310    0.0000 C   0  0  0  0  0  0  0  0  0  0  0  0
    1.2870    2.4080    0.0000 O   0  0  0  0  0  0  0  0  0  0  0  0
   -4.6640    1.6780    0.0000 C   0  0  0  0  0  0  0  0  0  0  0  0
   -4.9680    1.1420    0.0000 C   0  0  0  0  0  0  0  0  0  0  0  0
   -4.6620    0.6230    0.0000 C   0  0  0  0  0  0  0  0  0  0  0  0
   -4.0480    0.6250    0.0000 C   0  0  0  0  0  0  0  0  0  0  0  0
   -3.7420    1.1660    0.0000 C   0  0  0  0  0  0  0  0  0  0  0  0
   -4.0620    1.6870    0.0000 C   0  0  0  0  0  0  0  0  0  0  0  0
   -3.1460    1.1730    0.0000 C   0  0  0  0  0  0  0  0  0  0  0  0
   -2.8300    0.6420    0.0000 C   0  0  0  0  0  0  0  0  0  0  0  0
   -2.2170    0.6520    0.0000 C   0  0  0  0  0  0  0  0  0  0  0  0
   -1.9170    1.1840    0.0000 C   0  0  0  0  0  0  0  0  0  0  0  0
   -2.2360    1.7080    0.0000 C   0  0  0  0  0  0  0  0  0  0  0  0
   -2.8430    1.6990    0.0000 C   0  0  0  0  0  0  0  0  0  0  0  0
   -5.5770    1.1390    0.0000 Cl  0  0  0  0  0  0  0  0  0  0  0  0
   -1.3080    1.1960    0.0000 S   0  0  0  0  0  0  0  0  0  0  0  0
   -0.8150    1.1750    0.0000 N   0  0  0  0  0  0  0  0  0  0  0  0
   -1.2930    1.7250    0.0000 O   0  0  0  0  0  0  0  0  0  0  0  0
   -1.2940    0.6210    0.0000 O   0  0  0  0  0  0  0  0  0  0  0  0
   -0.2850    1.4790    0.0000 C   0  0  2  0  0  0  0  0  0  0  0  0
    0.2370    1.1750    0.0000 C   0  0  0  0  0  0  0  0  0  0  0  0
   -0.2850    2.0830    0.0000 C   0  0  0  0  0  0  0  0  0  0  0  0
    0.2370    0.5620    0.0000 O   0  0  0  0  0  0  0  0  0  0  0  0
    0.7680    1.4790    0.0000 N   0  0  0  0  0  0  0  0  0  0  0  0
    0.2370    2.3960    0.0000 C   0  0  0  0  0  0  0  0  0  0  0  0
    0.2370    3.0000    0.0000 C   0  0  0  0  0  0  0  0  0  0  0  0
    1.2830    1.1790    0.0000 O   0  0  0  0  0  0  0  0  0  0  0  0
 14 15  1  0  0  0  0
  7  8  2  0  0  0  0
 15 16  2  0  0  0  0
  3  5  1  0  0  0  0
 16 17  1  0  0  0  0
  8  9  1  0  0  0  0
 17 18  2  0  0  0  0
 18 13  1  0  0  0  0
  8 19  1  0  0  0  0
  9 10  2  0  0  0  0
 16 20  1  0  0  0  0
  2  3  1  0  0  0  0
 20 21  1  0  0  0  0
 10 11  1  0  0  0  0
 20 22  2  0  0  0  0
  2  1  1  0  0  0  0
 20 23  2  0  0  0  0
 11 12  2  0  0  0  0
 21 24  1  0  0  0  0
 12  7  1  0  0  0  0
 24 25  1  0  0  0  0
  2  6  2  0  0  0  0
 24 26  1  1  0  0  0
 11 13  1  0  0  0  0
 25 27  2  0  0  0  0
  4  3  1  0  0  0  0
 25 28  1  0  0  0  0
 13 14  2  0  0  0  0
 26 29  1  0  0  0  0
  5  4  1  0  0  0  0
 29 30  1  0  0  0  0
 30  1  1  0  0  0  0
 28 31  1  0  0  0  0
M  END
>  <ID_NEW>
CPDMM2175

>  <pIC50>
7.221848749616355

$$$$

  -MTS-   10172316422D 0   0.00000     0.00000     0

 30 33  0  0  1  0  0  0  0  0999 V2000
    1.8580    2.1750    0.0000 C   0  0  0  0  0  0  0  0  0  0  0  0
    1.0330    2.1790    0.0000 S   0  0  0  0  0  0  0  0  0  0  0  0
    2.2650    1.4560    0.0000 C   0  0  0  0  0  0  0  0  0  0  0  0
    3.0900    1.4520    0.0000 C   0  0  0  0  0  0  0  0  0  0  0  0
    3.5060    2.1640    0.0000 C   0  0  0  0  0  0  0  0  0  0  0  0
    3.0930    2.8830    0.0000 C   0  0  0  0  0  0  0  0  0  0  0  0
    2.2700    2.8840    0.0000 C   0  0  0  0  0  0  0  0  0  0  0  0
    0.2080    2.1790    0.0000 C   0  0  0  0  0  0  0  0  0  0  0  0
   -0.2020    2.8960    0.0000 C   0  0  0  0  0  0  0  0  0  0  0  0
   -1.0260    2.8960    0.0000 C   0  0  0  0  0  0  0  0  0  0  0  0
   -1.4400    2.1810    0.0000 C   0  0  0  0  0  0  0  0  0  0  0  0
   -1.0230    1.4640    0.0000 C   0  0  0  0  0  0  0  0  0  0  0  0
   -0.2000    1.4670    0.0000 C   0  0  0  0  0  0  0  0  0  0  0  0
   -2.2650    2.1800    0.0000 S   0  0  0  0  0  0  0  0  0  0  0  0
   -2.2710    3.0080    0.0000 O   0  0  0  0  0  0  0  0  0  0  0  0
   -2.2710    1.3580    0.0000 O   0  0  0  0  0  0  0  0  0  0  0  0
   -4.4070    2.5880    0.0000 C   0  0  0  0  0  0  0  0  0  0  0  0
   -4.4070    3.4170    0.0000 C   0  0  0  0  0  0  0  0  0  0  0  0
   -3.6960    2.1710    0.0000 C   0  0  1  0  0  0  0  0  0  0  0  0
   -5.1170    2.1770    0.0000 C   0  0  0  0  0  0  0  0  0  0  0  0
   -3.6960    3.8330    0.0000 C   0  0  0  0  0  0  0  0  0  0  0  0
   -5.1170    3.8270    0.0000 C   0  0  0  0  0  0  0  0  0  0  0  0
   -2.9800    2.5880    0.0000 N   0  0  0  0  0  0  0  0  0  0  0  0
   -3.6960    1.3520    0.0000 C   0  0  0  0  0  0  0  0  0  0  0  0
   -5.8310    2.5880    0.0000 C   0  0  0  0  0  0  0  0  0  0  0  0
   -2.9800    3.4170    0.0000 C   0  0  0  0  0  0  0  0  0  0  0  0
   -5.8310    3.4170    0.0000 C   0  0  0  0  0  0  0  0  0  0  0  0
   -4.4070    0.9580    0.0000 N   0  0  0  0  0  0  0  0  0  0  0  0
   -2.9920    0.9300    0.0000 O   0  0  0  0  0  0  0  0  0  0  0  0
   -4.4120    0.1330    0.0000 O   0  0  0  0  0  0  0  0  0  0  0  0
  1  2  1  0  0  0  0
  1  3  2  0  0  0  0
  3  4  1  0  0  0  0
  4  5  2  0  0  0  0
  5  6  1  0  0  0  0
  6  7  2  0  0  0  0
  7  1  1  0  0  0  0
  2  8  1  0  0  0  0
  8  9  2  0  0  0  0
  9 10  1  0  0  0  0
 10 11  2  0  0  0  0
 11 12  1  0  0  0  0
 12 13  2  0  0  0  0
 13  8  1  0  0  0  0
 11 14  1  0  0  0  0
 14 15  2  0  0  0  0
 14 16  2  0  0  0  0
 17 18  2  0  0  0  0
 17 19  1  0  0  0  0
 17 20  1  0  0  0  0
 18 21  1  0  0  0  0
 18 22  1  0  0  0  0
 19 23  1  0  0  0  0
 19 24  1  1  0  0  0
 20 25  2  0  0  0  0
 21 26  1  0  0  0  0
 22 27  2  0  0  0  0
 24 28  1  0  0  0  0
 24 29  2  0  0  0  0
 23 26  1  0  0  0  0
 25 27  1  0  0  0  0
 23 14  1  0  0  0  0
 28 30  1  0  0  0  0
M  END
>  <ID_NEW>
CPDMM2176

>  <pIC50>
7.096910013008055

$$$$

  -MTS-   10172316422D 0   0.00000     0.00000     0

 33 36  0  0  1  0  0  0  0  0999 V2000
   -4.0540    0.8760    0.0000 C   0  0  0  0  0  0  0  0  0  0  0  0
   -4.8400    0.6280    0.0000 N   0  0  0  0  0  0  0  0  0  0  0  0
   -3.4450    0.3190    0.0000 O   0  0  0  0  0  0  0  0  0  0  0  0
   -5.0190   -0.1780    0.0000 O   0  0  0  0  0  0  0  0  0  0  0  0
   -2.5460    1.2310    0.0000 S   0  0  0  0  0  0  0  0  0  0  0  0
   -1.7540    1.4500    0.0000 C   0  0  0  0  0  0  0  0  0  0  0  0
   -3.3500    1.0210    0.0000 O   0  0  0  0  0  0  0  0  0  0  0  0
   -2.5540    0.4080    0.0000 O   0  0  0  0  0  0  0  0  0  0  0  0
   -1.1690    0.8710    0.0000 C   0  0  0  0  0  0  0  0  0  0  0  0
   -0.3780    1.0900    0.0000 C   0  0  0  0  0  0  0  0  0  0  0  0
   -0.1710    1.8860    0.0000 C   0  0  0  0  0  0  0  0  0  0  0  0
   -0.7620    2.4630    0.0000 C   0  0  0  0  0  0  0  0  0  0  0  0
   -1.5510    2.2420    0.0000 C   0  0  0  0  0  0  0  0  0  0  0  0
   -3.8760    1.6780    0.0000 C   0  0  1  0  0  0  0  0  0  0  0  0
   -3.0660    1.8710    0.0000 N   0  0  0  0  0  0  0  0  0  0  0  0
   -2.8300    2.6650    0.0000 C   0  0  0  0  0  0  0  0  0  0  0  0
   -3.4000    3.2710    0.0000 C   0  0  0  0  0  0  0  0  0  0  0  0
   -4.4500    2.2770    0.0000 C   0  0  1  0  0  0  0  0  0  0  0  0
   -4.2130    3.0760    0.0000 C   0  0  2  0  0  0  0  0  0  0  0  0
   -4.7830    3.6770    0.0000 C   0  0  0  0  0  0  0  0  0  0  0  0
   -5.5930    3.4860    0.0000 C   0  0  0  0  0  0  0  0  0  0  0  0
   -5.8300    2.6870    0.0000 C   0  0  0  0  0  0  0  0  0  0  0  0
   -5.2570    2.0800    0.0000 C   0  0  0  0  0  0  0  0  0  0  0  0
    0.6240    2.1070    0.0000 C   0  0  0  0  0  0  0  0  0  0  0  0
    1.2110    1.5280    0.0000 C   0  0  0  0  0  0  0  0  0  0  0  0
    2.0060    1.7490    0.0000 C   0  0  0  0  0  0  0  0  0  0  0  0
    2.2120    2.5490    0.0000 C   0  0  0  0  0  0  0  0  0  0  0  0
    1.6180    3.1280    0.0000 C   0  0  0  0  0  0  0  0  0  0  0  0
    0.8260    2.9040    0.0000 C   0  0  0  0  0  0  0  0  0  0  0  0
    3.0030    2.7740    0.0000 C   0  0  0  0  0  0  0  0  0  0  0  0
    3.7970    2.9970    0.0000 N   0  0  0  0  0  0  0  0  0  0  0  0
   -3.9290    4.0340    0.0000 H   0  0  0  0  0  0  0  0  0  0  0  0
   -4.7300    1.3170    0.0000 H   0  0  0  0  0  0  0  0  0  0  0  0
 14  1  1  6  0  0  0
  1  2  1  0  0  0  0
  1  3  2  0  0  0  0
  2  4  1  0  0  0  0
 15  5  1  0  0  0  0
  5  6  1  0  0  0  0
  5  7  2  0  0  0  0
  5  8  2  0  0  0  0
  6  9  2  0  0  0  0
  9 10  1  0  0  0  0
 10 11  2  0  0  0  0
 11 12  1  0  0  0  0
 12 13  2  0  0  0  0
 13  6  1  0  0  0  0
 14 15  1  0  0  0  0
 14 18  1  0  0  0  0
 15 16  1  0  0  0  0
 16 17  1  0  0  0  0
 17 19  1  0  0  0  0
 18 19  1  0  0  0  0
 18 23  1  0  0  0  0
 19 20  1  0  0  0  0
 20 21  1  0  0  0  0
 21 22  1  0  0  0  0
 22 23  1  0  0  0  0
 11 24  1  0  0  0  0
 24 25  2  0  0  0  0
 25 26  1  0  0  0  0
 26 27  2  0  0  0  0
 27 28  1  0  0  0  0
 28 29  2  0  0  0  0
 29 24  1  0  0  0  0
 30 31  3  0  0  0  0
 27 30  1  0  0  0  0
 19 32  1  1  0  0  0
 18 33  1  1  0  0  0
M  END
>  <ID_NEW>
CPDMM2177

>  <pIC50>
7.040233797887395

$$$$

  -MTS-   10172316422D 0   0.00000     0.00000     0

 33 36  0  0  1  0  0  0  0  0999 V2000
   -5.4850    2.7420    0.0000 C   0  0  0  0  0  0  0  0  0  0  0  0
   -5.4860    2.2100    0.0000 C   0  0  0  0  0  0  0  0  0  0  0  0
   -5.0210    1.9390    0.0000 C   0  0  0  0  0  0  0  0  0  0  0  0
   -5.0230    3.0130    0.0000 C   0  0  0  0  0  0  0  0  0  0  0  0
   -4.5580    2.7450    0.0000 C   0  0  0  0  0  0  0  0  0  0  0  0
   -4.5580    2.2120    0.0000 C   0  0  0  0  0  0  0  0  0  0  0  0
   -4.0930    1.9380    0.0000 C   0  0  0  0  0  0  0  0  0  0  0  0
   -3.6310    2.2100    0.0000 N   0  0  0  0  0  0  0  0  0  0  0  0
   -3.6300    2.7430    0.0000 C   0  0  2  0  0  0  0  0  0  0  0  0
   -4.0920    3.0130    0.0000 C   0  0  0  0  0  0  0  0  0  0  0  0
   -3.1590    3.0160    0.0000 C   0  0  0  0  0  0  0  0  0  0  0  0
   -3.1570    3.5490    0.0000 O   0  0  0  0  0  0  0  0  0  0  0  0
   -3.1610    1.9370    0.0000 S   0  0  0  0  0  0  0  0  0  0  0  0
   -2.8860    2.4050    0.0000 O   0  0  0  0  0  0  0  0  0  0  0  0
   -3.4310    1.4640    0.0000 O   0  0  0  0  0  0  0  0  0  0  0  0
   -2.6970    1.6690    0.0000 C   0  0  0  0  0  0  0  0  0  0  0  0
   -2.6980    1.1320    0.0000 C   0  0  0  0  0  0  0  0  0  0  0  0
   -2.2340    0.8600    0.0000 C   0  0  0  0  0  0  0  0  0  0  0  0
   -2.2370    0.3280    0.0000 C   0  0  0  0  0  0  0  0  0  0  0  0
   -1.7690    0.0570    0.0000 C   0  0  0  0  0  0  0  0  0  0  0  0
   -1.3080    0.3270    0.0000 C   0  0  0  0  0  0  0  0  0  0  0  0
   -1.3050    0.8640    0.0000 C   0  0  0  0  0  0  0  0  0  0  0  0
   -1.7690    1.1320    0.0000 C   0  0  0  0  0  0  0  0  0  0  0  0
   -2.6950    2.7440    0.0000 O   0  0  0  0  0  0  0  0  0  0  0  0
   -0.8390    0.0560    0.0000 C   0  0  0  0  0  0  0  0  0  0  0  0
   -0.8440   -0.4800    0.0000 C   0  0  0  0  0  0  0  0  0  0  0  0
   -0.3800   -0.7460    0.0000 C   0  0  0  0  0  0  0  0  0  0  0  0
    0.0850   -0.4800    0.0000 C   0  0  0  0  0  0  0  0  0  0  0  0
    0.0820    0.0620    0.0000 C   0  0  0  0  0  0  0  0  0  0  0  0
   -0.3820    0.3290    0.0000 C   0  0  0  0  0  0  0  0  0  0  0  0
    0.5460   -0.7450    0.0000 C   0  0  0  0  0  0  0  0  0  0  0  0
    0.5470   -1.2820    0.0000 O   0  0  0  0  0  0  0  0  0  0  0  0
    1.0140   -0.4770    0.0000 N   0  0  0  0  0  0  0  0  0  0  0  0
  4  1  1  0  0  0  0
 16 17  1  0  0  0  0
  5 10  1  0  0  0  0
 17 18  1  0  0  0  0
  6  7  1  0  0  0  0
 18 19  2  0  0  0  0
  7  8  1  0  0  0  0
 19 20  1  0  0  0  0
  8  9  1  0  0  0  0
 20 21  2  0  0  0  0
  9 10  1  0  0  0  0
 21 22  1  0  0  0  0
  5  6  1  0  0  0  0
 22 23  2  0  0  0  0
 23 18  1  0  0  0  0
  9 11  1  6  0  0  0
 11 24  1  0  0  0  0
 11 12  2  0  0  0  0
 21 25  1  0  0  0  0
  2  3  1  0  0  0  0
 25 26  2  0  0  0  0
  8 13  1  0  0  0  0
 26 27  1  0  0  0  0
  3  6  2  0  0  0  0
 27 28  2  0  0  0  0
 13 14  2  0  0  0  0
 28 29  1  0  0  0  0
  1  2  2  0  0  0  0
 29 30  2  0  0  0  0
 30 25  1  0  0  0  0
 13 15  2  0  0  0  0
 28 31  1  0  0  0  0
  5  4  2  0  0  0  0
 31 32  2  0  0  0  0
 13 16  1  0  0  0  0
 31 33  1  0  0  0  0
M  END
>  <ID_NEW>
CPDMM2178

>  <pIC50>
7.0

$$$$

  SciTegic12180812252D

 29 32  0  0  0  0            999 V2000
   -4.9665    2.4577    0.0000 C   0  0
   -5.0990    1.9425    0.0000 C   0  0
   -4.7208    1.5766    0.0000 C   0  0
   -4.4560    2.6028    0.0000 C   0  0
   -4.0799    2.2288    0.0000 C   0  0
   -4.2113    1.7134    0.0000 C   0  0
   -3.8385    1.3467    0.0000 C   0  0
   -3.3269    1.4858    0.0000 N   0  0
   -3.1955    1.9971    0.0000 C   0  0
   -3.5715    2.3693    0.0000 C   0  0
   -3.9711    0.8358    0.0000 C   0  0
   -4.4825    0.6939    0.0000 O   0  0
   -3.5954    0.4636    0.0000 O   0  0
   -2.9517    1.1152    0.0000 S   0  0
   -2.4425    1.2590    0.0000 C   0  0
   -3.4624    0.9782    0.0000 O   0  0
   -2.8125    0.6093    0.0000 O   0  0
   -2.0633    0.8919    0.0000 C   0  0
   -1.5548    1.0351    0.0000 C   0  0
   -1.4255    1.5524    0.0000 C   0  0
   -1.8108    1.9178    0.0000 C   0  0
   -2.3128    1.7716    0.0000 C   0  0
   -0.9160    1.6974    0.0000 C   0  0
   -0.5344    1.3253    0.0000 C   0  0
   -0.0256    1.4740    0.0000 C   0  0
    0.1028    1.9880    0.0000 C   0  0
   -0.2837    2.3572    0.0000 C   0  0
   -0.7902    2.2056    0.0000 C   0  0
    0.6078    2.1341    0.0000 Cl  0  0
  8 14  1  0
  2  3  1  0
 14 15  1  0
  3  6  1  0
 14 16  2  0
  5  4  1  0
 14 17  2  0
  5 10  1  0
 15 18  2  0
  6  7  1  0
 18 19  1  0
  7  8  1  0
 19 20  2  0
  8  9  1  0
 20 21  1  0
  9 10  1  0
 21 22  2  0
 22 15  1  0
  5  6  1  0
 20 23  1  0
  7 11  1  0
 23 24  2  0
 24 25  1  0
  1  2  1  0
 25 26  2  0
 11 12  1  0
 26 27  1  0
 11 13  2  0
 27 28  2  0
 28 23  1  0
  1  4  1  0
 26 29  1  0
M  END
>  <ID_NEW>
CPDMM2179

>  <pIC50>
7.0

$$$$

  -MTS-   10172316422D 0   0.00000     0.00000     0

 32 35  0  0  1  0  0  0  0  0999 V2000
   -2.2710    3.0080    0.0000 O   0  0  0  0  0  0  0  0  0  0  0  0
   -2.2710    1.3580    0.0000 O   0  0  0  0  0  0  0  0  0  0  0  0
   -4.4070    2.5880    0.0000 C   0  0  0  0  0  0  0  0  0  0  0  0
   -4.4070    3.4170    0.0000 C   0  0  0  0  0  0  0  0  0  0  0  0
   -3.6960    2.1710    0.0000 C   0  0  1  0  0  0  0  0  0  0  0  0
   -5.1170    2.1770    0.0000 C   0  0  0  0  0  0  0  0  0  0  0  0
   -3.6960    3.8330    0.0000 C   0  0  0  0  0  0  0  0  0  0  0  0
   -5.1170    3.8270    0.0000 C   0  0  0  0  0  0  0  0  0  0  0  0
   -2.9800    2.5880    0.0000 N   0  0  0  0  0  0  0  0  0  0  0  0
   -3.6960    1.3520    0.0000 C   0  0  0  0  0  0  0  0  0  0  0  0
   -5.8310    2.5880    0.0000 C   0  0  0  0  0  0  0  0  0  0  0  0
   -2.9800    3.4170    0.0000 C   0  0  0  0  0  0  0  0  0  0  0  0
   -5.8310    3.4170    0.0000 C   0  0  0  0  0  0  0  0  0  0  0  0
   -4.4070    0.9580    0.0000 N   0  0  0  0  0  0  0  0  0  0  0  0
   -2.9920    0.9300    0.0000 O   0  0  0  0  0  0  0  0  0  0  0  0
   -1.6870    2.1720    0.0000 C   0  0  0  0  0  0  0  0  0  0  0  0
   -1.2700    2.8830    0.0000 C   0  0  0  0  0  0  0  0  0  0  0  0
   -1.2770    1.4520    0.0000 C   0  0  0  0  0  0  0  0  0  0  0  0
   -0.4420    2.8770    0.0000 C   0  0  0  0  0  0  0  0  0  0  0  0
   -0.4550    1.4500    0.0000 C   0  0  0  0  0  0  0  0  0  0  0  0
   -0.0380    2.1610    0.0000 C   0  0  0  0  0  0  0  0  0  0  0  0
    0.7900    2.1630    0.0000 O   0  0  0  0  0  0  0  0  0  0  0  0
    1.2010    1.4390    0.0000 C   0  0  0  0  0  0  0  0  0  0  0  0
    2.0280    1.4370    0.0000 C   0  0  0  0  0  0  0  0  0  0  0  0
    2.4330    0.7170    0.0000 C   0  0  0  0  0  0  0  0  0  0  0  0
    2.4450    2.1480    0.0000 C   0  0  0  0  0  0  0  0  0  0  0  0
    3.2560    0.7170    0.0000 C   0  0  0  0  0  0  0  0  0  0  0  0
    3.2700    2.1440    0.0000 C   0  0  0  0  0  0  0  0  0  0  0  0
    3.6730    1.4280    0.0000 C   0  0  0  0  0  0  0  0  0  0  0  0
    4.5010    1.4220    0.0000 F   0  0  0  0  0  0  0  0  0  0  0  0
   -2.2650    2.1800    0.0000 S   0  0  0  0  0  0  0  0  0  0  0  0
   -4.4120    0.1330    0.0000 O   0  0  0  0  0  0  0  0  0  0  0  0
 31  2  2  0  0  0  0
  3  4  2  0  0  0  0
  3  5  1  0  0  0  0
  3  6  1  0  0  0  0
  4  7  1  0  0  0  0
  4  8  1  0  0  0  0
  5  9  1  0  0  0  0
  5 10  1  1  0  0  0
  6 11  2  0  0  0  0
  7 12  1  0  0  0  0
  8 13  2  0  0  0  0
 10 14  1  0  0  0  0
 10 15  2  0  0  0  0
  9 12  1  0  0  0  0
 11 13  1  0  0  0  0
  9 31  1  0  0  0  0
 31  1  2  0  0  0  0
 31 16  1  0  0  0  0
 16 17  2  0  0  0  0
 16 18  1  0  0  0  0
 17 19  1  0  0  0  0
 18 20  2  0  0  0  0
 19 21  2  0  0  0  0
 21 22  1  0  0  0  0
 22 23  1  0  0  0  0
 23 24  1  0  0  0  0
 24 25  2  0  0  0  0
 24 26  1  0  0  0  0
 25 27  1  0  0  0  0
 26 28  2  0  0  0  0
 27 29  2  0  0  0  0
 29 30  1  0  0  0  0
 20 21  1  0  0  0  0
 28 29  1  0  0  0  0
 14 32  1  0  0  0  0
M  END
>  <ID_NEW>
CPDMM2180

>  <pIC50>
6.963403039229706

$$$$

  -MTS-   10172316422D 0   0.00000     0.00000     0

 32 36  0  0  1  0  0  0  0  0999 V2000
   -4.3770    2.4050    0.0000 C   0  0  1  0  0  0  0  0  0  0  0  0
   -3.8900    2.6850    0.0000 N   0  0  0  0  0  0  0  0  0  0  0  0
   -3.8930    3.2430    0.0000 C   0  0  0  0  0  0  0  0  0  0  0  0
   -4.3830    3.5210    0.0000 C   0  0  0  0  0  0  0  0  0  0  0  0
   -4.3740    1.8470    0.0000 C   0  0  0  0  0  0  0  0  0  0  0  0
   -4.8530    1.5750    0.0000 N   0  0  0  0  0  0  0  0  0  0  0  0
   -3.8910    1.5740    0.0000 O   0  0  0  0  0  0  0  0  0  0  0  0
   -2.9260    2.1290    0.0000 C   0  0  0  0  0  0  0  0  0  0  0  0
   -2.9270    1.5770    0.0000 C   0  0  0  0  0  0  0  0  0  0  0  0
   -2.4500    1.2970    0.0000 C   0  0  0  0  0  0  0  0  0  0  0  0
   -1.9670    1.5770    0.0000 C   0  0  0  0  0  0  0  0  0  0  0  0
   -1.9700    2.1330    0.0000 C   0  0  0  0  0  0  0  0  0  0  0  0
   -2.4520    2.4090    0.0000 C   0  0  0  0  0  0  0  0  0  0  0  0
   -3.4070    2.4080    0.0000 S   0  0  0  0  0  0  0  0  0  0  0  0
   -3.0170    2.8040    0.0000 O   0  0  0  0  0  0  0  0  0  0  0  0
   -3.8040    2.0170    0.0000 O   0  0  0  0  0  0  0  0  0  0  0  0
   -4.8580    2.6790    0.0000 C   0  0  2  0  0  0  0  0  0  0  0  0
   -4.8650    3.2410    0.0000 C   0  0  1  0  0  0  0  0  0  0  0  0
   -5.3500    3.5180    0.0000 C   0  0  0  0  0  0  0  0  0  0  0  0
   -5.8330    3.2410    0.0000 C   0  0  0  0  0  0  0  0  0  0  0  0
   -5.8300    2.6790    0.0000 C   0  0  0  0  0  0  0  0  0  0  0  0
   -5.3450    2.3930    0.0000 C   0  0  0  0  0  0  0  0  0  0  0  0
   -4.8470    1.0160    0.0000 O   0  0  0  0  0  0  0  0  0  0  0  0
   -1.0000    1.5800    0.0000 C   0  0  0  0  0  0  0  0  0  0  0  0
   -0.5180    1.3020    0.0000 C   0  0  0  0  0  0  0  0  0  0  0  0
   -0.0350    1.5820    0.0000 C   0  0  0  0  0  0  0  0  0  0  0  0
   -0.0370    2.1410    0.0000 C   0  0  0  0  0  0  0  0  0  0  0  0
   -0.5250    2.4180    0.0000 C   0  0  0  0  0  0  0  0  0  0  0  0
   -1.0050    2.1370    0.0000 C   0  0  0  0  0  0  0  0  0  0  0  0
   -1.4540    2.3330    0.0000 O   0  0  0  0  0  0  0  0  0  0  0  0
   -4.8690    4.2410    0.0000 H   0  0  0  0  0  0  0  0  0  0  0  0
   -4.8510    1.6790    0.0000 H   0  0  0  0  0  0  0  0  0  0  0  0
 18  4  1  0  0  0  0
 17  1  1  0  0  0  0
  1  2  1  0  0  0  0
  2  3  1  0  0  0  0
  3  4  1  0  0  0  0
  1  5  1  1  0  0  0
  5  6  1  0  0  0  0
  5  7  2  0  0  0  0
  2 14  1  0  0  0  0
  8  9  2  0  0  0  0
  9 10  1  0  0  0  0
 10 11  2  0  0  0  0
 11 12  1  0  0  0  0
 12 13  2  0  0  0  0
 13  8  1  0  0  0  0
  8 14  1  0  0  0  0
 14 15  2  0  0  0  0
 14 16  2  0  0  0  0
 17 18  1  0  0  0  0
 17 22  1  0  0  0  0
 18 19  1  0  0  0  0
 19 20  1  0  0  0  0
 20 21  1  0  0  0  0
 21 22  1  0  0  0  0
  6 23  1  0  0  0  0
 24 25  2  0  0  0  0
 25 26  1  0  0  0  0
 26 27  2  0  0  0  0
 27 28  1  0  0  0  0
 28 29  2  0  0  0  0
 29 24  1  0  0  0  0
 11 24  1  0  0  0  0
 12 30  1  0  0  0  0
 29 30  1  0  0  0  0
 18 31  1  6  0  0  0
 17 32  1  6  0  0  0
M  END
>  <ID_NEW>
CPDMM2181

>  <pIC50>
6.958607314841775

$$$$

  -MTS-   10172316422D 0   0.00000     0.00000     0

 29 32  0  0  1  0  0  0  0  0999 V2000
    1.4620    0.4830    0.0000 N   0  0  0  0  0  0  0  0  0  0  0  0
    1.4620    1.5520    0.0000 C   0  0  2  0  0  0  0  0  0  0  0  0
    2.3860   -0.0480    0.0000 C   0  0  0  0  0  0  0  0  0  0  0  0
    0.5410   -0.0480    0.0000 S   0  0  0  0  0  0  0  0  0  0  0  0
    2.3860    2.0860    0.0000 C   0  0  0  0  0  0  0  0  0  0  0  0
    0.5410    2.0830    0.0000 C   0  0  0  0  0  0  0  0  0  0  0  0
    3.3100    0.4830    0.0000 C   0  0  0  0  0  0  0  0  0  0  0  0
   -0.4280   -0.4860    0.0000 C   0  0  0  0  0  0  0  0  0  0  0  0
   -0.2310    0.6900    0.0000 O   0  0  0  0  0  0  0  0  0  0  0  0
    1.4070   -0.7210    0.0000 O   0  0  0  0  0  0  0  0  0  0  0  0
    3.3100    1.5520    0.0000 C   0  0  0  0  0  0  0  0  0  0  0  0
   -0.3790    1.5520    0.0000 N   0  0  0  0  0  0  0  0  0  0  0  0
    0.5410    3.1450    0.0000 O   0  0  0  0  0  0  0  0  0  0  0  0
    4.2340   -0.0520    0.0000 C   0  0  0  0  0  0  0  0  0  0  0  0
   -1.2900    0.1340    0.0000 C   0  0  0  0  0  0  0  0  0  0  0  0
   -0.5310   -1.5450    0.0000 C   0  0  0  0  0  0  0  0  0  0  0  0
    4.2340    2.0860    0.0000 C   0  0  0  0  0  0  0  0  0  0  0  0
   -1.3000    2.0830    0.0000 O   0  0  0  0  0  0  0  0  0  0  0  0
    5.1590    0.4830    0.0000 C   0  0  0  0  0  0  0  0  0  0  0  0
   -2.2590   -0.3030    0.0000 C   0  0  0  0  0  0  0  0  0  0  0  0
   -1.5000   -1.9830    0.0000 C   0  0  0  0  0  0  0  0  0  0  0  0
    5.1590    1.5520    0.0000 C   0  0  0  0  0  0  0  0  0  0  0  0
   -2.3650   -1.3620    0.0000 C   0  0  0  0  0  0  0  0  0  0  0  0
   -3.3340   -1.8000    0.0000 N   0  0  0  0  0  0  0  0  0  0  0  0
   -4.1970   -1.1790    0.0000 C   0  0  0  0  0  0  0  0  0  0  0  0
   -3.4380   -2.8590    0.0000 C   0  0  0  0  0  0  0  0  0  0  0  0
   -5.1650   -1.6170    0.0000 C   0  0  0  0  0  0  0  0  0  0  0  0
   -4.4070   -3.2970    0.0000 C   0  0  0  0  0  0  0  0  0  0  0  0
   -5.2720   -2.6760    0.0000 O   0  0  0  0  0  0  0  0  0  0  0  0
  1  2  1  0  0  0  0
  1  3  1  0  0  0  0
  1  4  1  0  0  0  0
  2  5  1  0  0  0  0
  2  6  1  1  0  0  0
  3  7  1  0  0  0  0
  4  8  1  0  0  0  0
  4  9  2  0  0  0  0
  4 10  2  0  0  0  0
  5 11  1  0  0  0  0
  6 12  1  0  0  0  0
  6 13  2  0  0  0  0
  7 14  1  0  0  0  0
  8 15  1  0  0  0  0
  8 16  2  0  0  0  0
 11 17  1  0  0  0  0
 12 18  1  0  0  0  0
 14 19  2  0  0  0  0
 15 20  2  0  0  0  0
 16 21  1  0  0  0  0
 17 22  2  0  0  0  0
 20 23  1  0  0  0  0
 23 24  1  0  0  0  0
 24 25  1  0  0  0  0
 24 26  1  0  0  0  0
 25 27  1  0  0  0  0
 26 28  1  0  0  0  0
 27 29  1  0  0  0  0
  7 11  2  0  0  0  0
 19 22  1  0  0  0  0
 21 23  2  0  0  0  0
 28 29  1  0  0  0  0
M  END
>  <ID_NEW>
CPDMM2182

>  <pIC50>
6.943028323846581

$$$$

  -MTS-   10172316422D 0   0.00000     0.00000     0

 36 39  0  0  1  0  0  0  0  0999 V2000
    1.8580    2.1750    0.0000 C   0  0  0  0  0  0  0  0  0  0  0  0
    1.0330    2.1790    0.0000 O   0  0  0  0  0  0  0  0  0  0  0  0
    2.2650    1.4560    0.0000 C   0  0  0  0  0  0  0  0  0  0  0  0
    3.0900    1.4520    0.0000 C   0  0  0  0  0  0  0  0  0  0  0  0
    3.5060    2.1640    0.0000 C   0  0  0  0  0  0  0  0  0  0  0  0
    3.0930    2.8830    0.0000 C   0  0  0  0  0  0  0  0  0  0  0  0
    2.2700    2.8840    0.0000 C   0  0  0  0  0  0  0  0  0  0  0  0
    4.3310    2.1610    0.0000 O   0  0  0  0  0  0  0  0  0  0  0  0
    4.7410    1.4450    0.0000 C   0  0  0  0  0  0  0  0  0  0  0  0
    5.5660    1.4420    0.0000 C   0  0  0  0  0  0  0  0  0  0  0  0
    5.9760    0.7260    0.0000 F   0  0  0  0  0  0  0  0  0  0  0  0
    5.9810    2.1550    0.0000 F   0  0  0  0  0  0  0  0  0  0  0  0
    6.3580    1.2330    0.0000 F   0  0  0  0  0  0  0  0  0  0  0  0
    0.2080    2.1790    0.0000 C   0  0  0  0  0  0  0  0  0  0  0  0
   -0.2020    2.8960    0.0000 C   0  0  0  0  0  0  0  0  0  0  0  0
   -1.0260    2.8960    0.0000 C   0  0  0  0  0  0  0  0  0  0  0  0
   -1.4400    2.1810    0.0000 C   0  0  0  0  0  0  0  0  0  0  0  0
   -1.0230    1.4640    0.0000 C   0  0  0  0  0  0  0  0  0  0  0  0
   -0.2000    1.4670    0.0000 C   0  0  0  0  0  0  0  0  0  0  0  0
   -2.2650    2.1800    0.0000 S   0  0  0  0  0  0  0  0  0  0  0  0
   -2.2710    3.0080    0.0000 O   0  0  0  0  0  0  0  0  0  0  0  0
   -2.2710    1.3580    0.0000 O   0  0  0  0  0  0  0  0  0  0  0  0
   -4.4070    2.5880    0.0000 C   0  0  0  0  0  0  0  0  0  0  0  0
   -4.4070    3.4170    0.0000 C   0  0  0  0  0  0  0  0  0  0  0  0
   -3.6960    2.1710    0.0000 C   0  0  1  0  0  0  0  0  0  0  0  0
   -5.1170    2.1770    0.0000 C   0  0  0  0  0  0  0  0  0  0  0  0
   -3.6960    3.8330    0.0000 C   0  0  0  0  0  0  0  0  0  0  0  0
   -5.1170    3.8270    0.0000 C   0  0  0  0  0  0  0  0  0  0  0  0
   -2.9800    2.5880    0.0000 N   0  0  0  0  0  0  0  0  0  0  0  0
   -3.6960    1.3520    0.0000 C   0  0  0  0  0  0  0  0  0  0  0  0
   -5.8310    2.5880    0.0000 C   0  0  0  0  0  0  0  0  0  0  0  0
   -2.9800    3.4170    0.0000 C   0  0  0  0  0  0  0  0  0  0  0  0
   -5.8310    3.4170    0.0000 C   0  0  0  0  0  0  0  0  0  0  0  0
   -2.9920    0.9300    0.0000 O   0  0  0  0  0  0  0  0  0  0  0  0
   -4.4140    0.9460    0.0000 N   0  0  0  0  0  0  0  0  0  0  0  0
   -4.4210    0.1250    0.0000 O   0  0  0  0  0  0  0  0  0  0  0  0
  1  2  1  0  0  0  0
  1  3  2  0  0  0  0
  3  4  1  0  0  0  0
  4  5  2  0  0  0  0
  5  6  1  0  0  0  0
  6  7  2  0  0  0  0
  7  1  1  0  0  0  0
  5  8  1  0  0  0  0
  8  9  1  0  0  0  0
  9 10  1  0  0  0  0
 10 11  1  0  0  0  0
 10 12  1  0  0  0  0
 10 13  1  0  0  0  0
  2 14  1  0  0  0  0
 14 15  2  0  0  0  0
 15 16  1  0  0  0  0
 16 17  2  0  0  0  0
 17 18  1  0  0  0  0
 18 19  2  0  0  0  0
 19 14  1  0  0  0  0
 17 20  1  0  0  0  0
 20 21  2  0  0  0  0
 20 22  2  0  0  0  0
 23 24  2  0  0  0  0
 23 25  1  0  0  0  0
 23 26  1  0  0  0  0
 24 27  1  0  0  0  0
 24 28  1  0  0  0  0
 25 29  1  0  0  0  0
 25 30  1  1  0  0  0
 26 31  2  0  0  0  0
 27 32  1  0  0  0  0
 28 33  2  0  0  0  0
 30 34  2  0  0  0  0
 29 32  1  0  0  0  0
 31 33  1  0  0  0  0
 29 20  1  0  0  0  0
 30 35  1  0  0  0  0
 35 36  1  0  0  0  0
M  END
>  <ID_NEW>
CPDMM2183

>  <pIC50>
6.941414561026037

$$$$

  -MTS-   10172316422D 0   0.00000     0.00000     0

 35 38  0  0  1  0  0  0  0  0999 V2000
    3.0250   -4.9580    0.0000 O   0  0  0  0  0  0  0  0  0  0  0  0
    3.0250   -6.6080    0.0000 O   0  0  0  0  0  0  0  0  0  0  0  0
    0.8890   -5.3790    0.0000 C   0  0  0  0  0  0  0  0  0  0  0  0
    0.8890   -4.5500    0.0000 C   0  0  0  0  0  0  0  0  0  0  0  0
    1.6000   -5.7960    0.0000 C   0  0  1  0  0  0  0  0  0  0  0  0
    0.1790   -5.7890    0.0000 C   0  0  0  0  0  0  0  0  0  0  0  0
    1.6000   -4.1340    0.0000 C   0  0  0  0  0  0  0  0  0  0  0  0
    0.1790   -4.1390    0.0000 C   0  0  0  0  0  0  0  0  0  0  0  0
    2.3150   -5.3790    0.0000 N   0  0  0  0  0  0  0  0  0  0  0  0
    1.6000   -6.6140    0.0000 C   0  0  0  0  0  0  0  0  0  0  0  0
   -0.5360   -5.3790    0.0000 C   0  0  0  0  0  0  0  0  0  0  0  0
    2.3150   -4.5500    0.0000 C   0  0  0  0  0  0  0  0  0  0  0  0
   -0.5360   -4.5500    0.0000 C   0  0  0  0  0  0  0  0  0  0  0  0
    0.8890   -7.0090    0.0000 N   0  0  0  0  0  0  0  0  0  0  0  0
    2.3040   -7.0360    0.0000 O   0  0  0  0  0  0  0  0  0  0  0  0
    3.6090   -5.7940    0.0000 C   0  0  0  0  0  0  0  0  0  0  0  0
    4.0260   -5.0840    0.0000 C   0  0  0  0  0  0  0  0  0  0  0  0
    4.0190   -6.5140    0.0000 C   0  0  0  0  0  0  0  0  0  0  0  0
    4.8540   -5.0890    0.0000 C   0  0  0  0  0  0  0  0  0  0  0  0
    4.8410   -6.5160    0.0000 C   0  0  0  0  0  0  0  0  0  0  0  0
    5.2580   -5.8060    0.0000 C   0  0  0  0  0  0  0  0  0  0  0  0
    3.0310   -5.7870    0.0000 S   0  0  0  0  0  0  0  0  0  0  0  0
    6.0830   -5.8130    0.0000 C   0  0  0  0  0  0  0  0  0  0  0  0
    6.4880   -6.5320    0.0000 C   0  0  0  0  0  0  0  0  0  0  0  0
    7.3120   -6.5400    0.0000 C   0  0  0  0  0  0  0  0  0  0  0  0
    7.7310   -5.8280    0.0000 C   0  0  0  0  0  0  0  0  0  0  0  0
    7.3200   -5.1080    0.0000 C   0  0  0  0  0  0  0  0  0  0  0  0
    6.4980   -5.1040    0.0000 C   0  0  0  0  0  0  0  0  0  0  0  0
    8.5560   -5.8340    0.0000 O   0  0  0  0  0  0  0  0  0  0  0  0
    8.9630   -6.5520    0.0000 C   0  0  0  0  0  0  0  0  0  0  0  0
    9.7880   -6.5580    0.0000 C   0  0  0  0  0  0  0  0  0  0  0  0
   10.1960   -7.2750    0.0000 F   0  0  0  0  0  0  0  0  0  0  0  0
   10.2060   -5.8460    0.0000 F   0  0  0  0  0  0  0  0  0  0  0  0
   10.5830   -6.7670    0.0000 F   0  0  0  0  0  0  0  0  0  0  0  0
    0.8830   -7.8330    0.0000 O   0  0  0  0  0  0  0  0  0  0  0  0
 22  2  2  0  0  0  0
  3  4  2  0  0  0  0
  3  5  1  0  0  0  0
  3  6  1  0  0  0  0
  4  7  1  0  0  0  0
  4  8  1  0  0  0  0
  5  9  1  0  0  0  0
  5 10  1  1  0  0  0
  6 11  2  0  0  0  0
  7 12  1  0  0  0  0
  8 13  2  0  0  0  0
 10 14  1  0  0  0  0
 10 15  2  0  0  0  0
  9 12  1  0  0  0  0
 11 13  1  0  0  0  0
  9 22  1  0  0  0  0
 22  1  2  0  0  0  0
 22 16  1  0  0  0  0
 16 17  2  0  0  0  0
 16 18  1  0  0  0  0
 17 19  1  0  0  0  0
 18 20  2  0  0  0  0
 19 21  2  0  0  0  0
 20 21  1  0  0  0  0
 21 23  1  0  0  0  0
 23 24  2  0  0  0  0
 24 25  1  0  0  0  0
 25 26  2  0  0  0  0
 26 27  1  0  0  0  0
 27 28  2  0  0  0  0
 28 23  1  0  0  0  0
 26 29  1  0  0  0  0
 29 30  1  0  0  0  0
 30 31  1  0  0  0  0
 31 32  1  0  0  0  0
 31 33  1  0  0  0  0
 31 34  1  0  0  0  0
 14 35  1  0  0  0  0
M  END
>  <ID_NEW>
CPDMM2184

>  <pIC50>
6.939698870525447

$$$$

  -MTS-   10172316422D 0   0.00000     0.00000     0

 38 42  0  0  1  0  0  0  0  0999 V2000
   -4.1220    1.2750    0.0000 C   0  0  0  0  0  0  0  0  0  0  0  0
   -4.1230    0.4480    0.0000 C   0  0  0  0  0  0  0  0  0  0  0  0
   -3.4090    0.0350    0.0000 C   0  0  0  0  0  0  0  0  0  0  0  0
   -3.4100    1.6880    0.0000 C   0  0  0  0  0  0  0  0  0  0  0  0
   -2.6950    1.2790    0.0000 C   0  0  0  0  0  0  0  0  0  0  0  0
   -2.6920    0.4460    0.0000 C   0  0  0  0  0  0  0  0  0  0  0  0
   -1.9720    0.0340    0.0000 C   0  0  0  0  0  0  0  0  0  0  0  0
   -1.2520    0.4510    0.0000 N   0  0  0  0  0  0  0  0  0  0  0  0
   -1.2550    1.2850    0.0000 C   0  0  2  0  0  0  0  0  0  0  0  0
   -1.9790    1.7000    0.0000 C   0  0  0  0  0  0  0  0  0  0  0  0
   -0.5420    1.6990    0.0000 C   0  0  0  0  0  0  0  0  0  0  0  0
    0.1740    1.2910    0.0000 N   0  0  0  0  0  0  0  0  0  0  0  0
   -0.5440    2.5260    0.0000 O   0  0  0  0  0  0  0  0  0  0  0  0
   -0.5360    0.0410    0.0000 S   0  0  0  0  0  0  0  0  0  0  0  0
    0.2870    0.0420    0.0000 C   0  0  0  0  0  0  0  0  0  0  0  0
    0.6980   -0.6740    0.0000 C   0  0  0  0  0  0  0  0  0  0  0  0
    1.5210   -0.6730    0.0000 C   0  0  0  0  0  0  0  0  0  0  0  0
    1.9340    0.0410    0.0000 C   0  0  0  0  0  0  0  0  0  0  0  0
    1.5170    0.7560    0.0000 C   0  0  0  0  0  0  0  0  0  0  0  0
    0.6950    0.7530    0.0000 C   0  0  0  0  0  0  0  0  0  0  0  0
    2.7590    0.0430    0.0000 C   0  0  0  0  0  0  0  0  0  0  0  0
    3.1690   -0.6710    0.0000 C   0  0  0  0  0  0  0  0  0  0  0  0
    3.9930   -0.6690    0.0000 C   0  0  0  0  0  0  0  0  0  0  0  0
    4.4050    0.0470    0.0000 C   0  0  0  0  0  0  0  0  0  0  0  0
    3.9860    0.7630    0.0000 C   0  0  0  0  0  0  0  0  0  0  0  0
    3.1640    0.7580    0.0000 C   0  0  0  0  0  0  0  0  0  0  0  0
    5.2300    0.0500    0.0000 N   0  0  0  0  0  0  0  0  0  0  0  0
    5.6400    0.7660    0.0000 C   0  0  0  0  0  0  0  0  0  0  0  0
    6.4650    0.7680    0.0000 N   0  0  0  0  0  0  0  0  0  0  0  0
    5.2250    1.4790    0.0000 O   0  0  0  0  0  0  0  0  0  0  0  0
    6.8770    0.0510    0.0000 C   0  0  0  0  0  0  0  0  0  0  0  0
    7.6990    0.0510    0.0000 C   0  0  0  0  0  0  0  0  0  0  0  0
    8.1130    0.7660    0.0000 O   0  0  0  0  0  0  0  0  0  0  0  0
    7.6990    1.4800    0.0000 C   0  0  0  0  0  0  0  0  0  0  0  0
    6.8710    1.4810    0.0000 C   0  0  0  0  0  0  0  0  0  0  0  0
   -1.2540   -0.3670    0.0000 O   0  0  0  0  0  0  0  0  0  0  0  0
   -0.1290   -0.6710    0.0000 O   0  0  0  0  0  0  0  0  0  0  0  0
    0.8830    1.7080    0.0000 O   0  0  0  0  0  0  0  0  0  0  0  0
  6  7  1  0  0  0  0
 18 19  1  0  0  0  0
  7  8  1  0  0  0  0
 19 20  2  0  0  0  0
 20 15  1  0  0  0  0
  8  9  1  0  0  0  0
 18 21  1  0  0  0  0
  9 10  1  0  0  0  0
 21 22  2  0  0  0  0
  5  6  1  0  0  0  0
 22 23  1  0  0  0  0
  9 11  1  6  0  0  0
 23 24  2  0  0  0  0
 24 25  1  0  0  0  0
  2  3  1  0  0  0  0
 25 26  2  0  0  0  0
 26 21  1  0  0  0  0
 11 12  1  0  0  0  0
 24 27  1  0  0  0  0
 11 13  2  0  0  0  0
 27 28  1  0  0  0  0
  3  6  2  0  0  0  0
 28 29  1  0  0  0  0
  8 14  1  0  0  0  0
 28 30  2  0  0  0  0
 29 31  1  0  0  0  0
  1  2  2  0  0  0  0
 14 15  1  0  0  0  0
  5  4  2  0  0  0  0
 15 16  2  0  0  0  0
  4  1  1  0  0  0  0
 29 35  1  0  0  0  0
 31 32  1  0  0  0  0
 32 33  1  0  0  0  0
 33 34  1  0  0  0  0
 34 35  1  0  0  0  0
 16 17  1  0  0  0  0
 14 36  2  0  0  0  0
  5 10  1  0  0  0  0
 14 37  2  0  0  0  0
 17 18  2  0  0  0  0
 12 38  1  0  0  0  0
M  END
>  <ID_NEW>
CPDMM2185

>  <pIC50>
6.886056647693163

$$$$

  -MTS-   10172316422D 0   0.00000     0.00000     0

 37 41  0  0  1  0  0  0  0  0999 V2000
   -4.5680    0.5540    0.0000 C   0  0  0  0  0  0  0  0  0  0  0  0
   -4.5690   -0.2730    0.0000 C   0  0  0  0  0  0  0  0  0  0  0  0
   -3.8540   -0.6860    0.0000 C   0  0  0  0  0  0  0  0  0  0  0  0
   -3.8560    0.9670    0.0000 C   0  0  0  0  0  0  0  0  0  0  0  0
   -3.1410    0.5580    0.0000 C   0  0  0  0  0  0  0  0  0  0  0  0
   -3.1370   -0.2750    0.0000 C   0  0  0  0  0  0  0  0  0  0  0  0
   -2.4180   -0.6860    0.0000 C   0  0  0  0  0  0  0  0  0  0  0  0
   -1.6980   -0.2690    0.0000 N   0  0  0  0  0  0  0  0  0  0  0  0
   -1.7010    0.5640    0.0000 C   0  0  2  0  0  0  0  0  0  0  0  0
   -2.4250    0.9800    0.0000 C   0  0  0  0  0  0  0  0  0  0  0  0
   -0.9880    0.9780    0.0000 C   0  0  0  0  0  0  0  0  0  0  0  0
   -0.2720    0.5700    0.0000 N   0  0  0  0  0  0  0  0  0  0  0  0
   -0.9900    1.8050    0.0000 O   0  0  0  0  0  0  0  0  0  0  0  0
   -0.9820   -0.6800    0.0000 S   0  0  0  0  0  0  0  0  0  0  0  0
   -0.1580   -0.6790    0.0000 C   0  0  0  0  0  0  0  0  0  0  0  0
    0.2520   -1.3950    0.0000 C   0  0  0  0  0  0  0  0  0  0  0  0
    1.0760   -1.3940    0.0000 C   0  0  0  0  0  0  0  0  0  0  0  0
    1.4880   -0.6800    0.0000 C   0  0  0  0  0  0  0  0  0  0  0  0
    1.0710    0.0360    0.0000 C   0  0  0  0  0  0  0  0  0  0  0  0
    0.2490    0.0320    0.0000 C   0  0  0  0  0  0  0  0  0  0  0  0
    2.3130   -0.6780    0.0000 C   0  0  0  0  0  0  0  0  0  0  0  0
    2.7230   -1.3910    0.0000 C   0  0  0  0  0  0  0  0  0  0  0  0
    3.5470   -1.3900    0.0000 C   0  0  0  0  0  0  0  0  0  0  0  0
    3.9590   -0.6740    0.0000 C   0  0  0  0  0  0  0  0  0  0  0  0
    3.5410    0.0420    0.0000 C   0  0  0  0  0  0  0  0  0  0  0  0
    2.7180    0.0370    0.0000 C   0  0  0  0  0  0  0  0  0  0  0  0
    4.7840   -0.6710    0.0000 N   0  0  0  0  0  0  0  0  0  0  0  0
    5.1940    0.0450    0.0000 C   0  0  0  0  0  0  0  0  0  0  0  0
    6.0190    0.0480    0.0000 N   0  0  0  0  0  0  0  0  0  0  0  0
    4.7790    0.7580    0.0000 O   0  0  0  0  0  0  0  0  0  0  0  0
    6.4320   -0.6700    0.0000 C   0  0  0  0  0  0  0  0  0  0  0  0
    7.2530   -0.6690    0.0000 C   0  0  0  0  0  0  0  0  0  0  0  0
    7.2530    0.7600    0.0000 C   0  0  0  0  0  0  0  0  0  0  0  0
    6.4250    0.7600    0.0000 C   0  0  0  0  0  0  0  0  0  0  0  0
   -1.7000   -1.0870    0.0000 O   0  0  0  0  0  0  0  0  0  0  0  0
   -0.5750   -1.3920    0.0000 O   0  0  0  0  0  0  0  0  0  0  0  0
    0.4370    0.9870    0.0000 O   0  0  0  0  0  0  0  0  0  0  0  0
 17 18  2  0  0  0  0
  6  7  1  0  0  0  0
 18 19  1  0  0  0  0
  7  8  1  0  0  0  0
 19 20  2  0  0  0  0
 20 15  1  0  0  0  0
  8  9  1  0  0  0  0
 18 21  1  0  0  0  0
  9 10  1  0  0  0  0
 21 22  2  0  0  0  0
  5  6  1  0  0  0  0
 22 23  1  0  0  0  0
  9 11  1  6  0  0  0
 23 24  2  0  0  0  0
 24 25  1  0  0  0  0
  2  3  1  0  0  0  0
 25 26  2  0  0  0  0
 26 21  1  0  0  0  0
 11 12  1  0  0  0  0
 24 27  1  0  0  0  0
 11 13  2  0  0  0  0
 27 28  1  0  0  0  0
  3  6  2  0  0  0  0
 28 29  1  0  0  0  0
  8 14  1  0  0  0  0
 28 30  2  0  0  0  0
 29 31  1  0  0  0  0
  1  2  2  0  0  0  0
 14 15  1  0  0  0  0
  5  4  2  0  0  0  0
 15 16  2  0  0  0  0
 29 34  1  0  0  0  0
 31 32  1  0  0  0  0
 33 34  1  0  0  0  0
  4  1  1  0  0  0  0
 14 35  2  0  0  0  0
 16 17  1  0  0  0  0
 14 36  2  0  0  0  0
  5 10  1  0  0  0  0
 12 37  1  0  0  0  0
 33 32  1  0  0  0  0
M  END
>  <ID_NEW>
CPDMM2186

>  <pIC50>
6.853871964321761

$$$$

  -MTS-   10172316422D 0   0.00000     0.00000     0

 28 31  0  0  0  0  0  0  0  0999 V2000
   -6.0290    1.8080    0.0000 S   0  0  0  0  0  0  0  0  0  0  0  0
   -6.7620    1.8120    0.0000 N   0  0  0  0  0  0  0  0  0  0  0  0
   -7.1370    1.1960    0.0000 C   0  0  1  0  0  0  0  0  0  0  0  0
   -5.2830    1.8080    0.0000 C   0  0  0  0  0  0  0  0  0  0  0  0
   -6.7790    0.5620    0.0000 C   0  0  0  0  0  0  0  0  0  0  0  0
   -7.8670    1.2000    0.0000 C   0  0  2  0  0  0  0  0  0  0  0  0
   -7.1170    2.4580    0.0000 C   0  0  0  0  0  0  0  0  0  0  0  0
   -6.0420    1.0830    0.0000 O   0  0  0  0  0  0  0  0  0  0  0  0
   -6.0170    2.5460    0.0000 O   0  0  0  0  0  0  0  0  0  0  0  0
   -4.9250    1.1710    0.0000 C   0  0  0  0  0  0  0  0  0  0  0  0
   -4.1830    1.1580    0.0000 C   0  0  0  0  0  0  0  0  0  0  0  0
   -3.7960    1.7960    0.0000 C   0  0  0  0  0  0  0  0  0  0  0  0
   -6.0540    0.5500    0.0000 O   0  0  0  0  0  0  0  0  0  0  0  0
   -3.0710    1.6330    0.0000 O   0  0  0  0  0  0  0  0  0  0  0  0
   -4.9080    2.4460    0.0000 C   0  0  0  0  0  0  0  0  0  0  0  0
   -8.2210    1.8330    0.0000 C   0  0  2  0  0  0  0  0  0  0  0  0
   -7.1500   -0.0750    0.0000 N   0  0  0  0  0  0  0  0  0  0  0  0
   -7.8460    2.4620    0.0000 C   0  0  0  0  0  0  0  0  0  0  0  0
   -4.1620    2.4330    0.0000 C   0  0  0  0  0  0  0  0  0  0  0  0
   -3.0000    0.8960    0.0000 C   0  0  0  0  0  0  0  0  0  0  0  0
   -6.7750   -0.6920    0.0000 O   0  0  0  0  0  0  0  0  0  0  0  0
   -8.2420    0.5620    0.0000 C   0  0  0  0  0  0  0  0  0  0  0  0
   -3.6830    0.6000    0.0000 C   0  0  0  0  0  0  0  0  0  0  0  0
   -8.9670    1.8330    0.0000 C   0  0  0  0  0  0  0  0  0  0  0  0
   -8.9790    0.5830    0.0000 C   0  0  0  0  0  0  0  0  0  0  0  0
   -9.3540    1.2210    0.0000 C   0  0  0  0  0  0  0  0  0  0  0  0
   -8.7150    2.7030    0.0000 H   0  0  0  0  0  0  0  0  0  0  0  0
   -7.3730    0.3300    0.0000 H   0  0  0  0  0  0  0  0  0  0  0  0
  2  1  1  0  0  0  0
  3  2  1  0  0  0  0
  4  1  1  0  0  0  0
  3  5  1  1  0  0  0
  6  3  1  0  0  0  0
  7  2  1  0  0  0  0
  8  1  2  0  0  0  0
  9  1  2  0  0  0  0
 10  4  1  0  0  0  0
 11 10  2  0  0  0  0
 12 19  2  0  0  0  0
 13  5  2  0  0  0  0
 14 12  1  0  0  0  0
 15  4  2  0  0  0  0
 16 18  1  0  0  0  0
 17  5  1  0  0  0  0
 18  7  1  0  0  0  0
 19 15  1  0  0  0  0
 20 23  1  0  0  0  0
 21 17  1  0  0  0  0
 22  6  1  0  0  0  0
 23 11  1  0  0  0  0
 24 16  1  0  0  0  0
 25 22  1  0  0  0  0
 26 24  1  0  0  0  0
  6 16  1  0  0  0  0
 12 11  1  0  0  0  0
 14 20  1  0  0  0  0
 26 25  1  0  0  0  0
 16 27  1  6  0  0  0
  6 28  1  6  0  0  0
V    3 M1
V    6 M1
V   16 M1
M  END
>  <ID_NEW>
CPDMM2187

>  <pIC50>
6.834684435236785

$$$$

  -MTS-   10172316422D 0   0.00000     0.00000     0

 36 39  0  0  1  0  0  0  0  0999 V2000
   -1.2670   -2.7050    0.0000 C   0  0  0  0  0  0  0  0  0  0  0  0
   -1.4570   -3.4370    0.0000 C   0  0  0  0  0  0  0  0  0  0  0  0
   -0.9250   -3.9570    0.0000 C   0  0  0  0  0  0  0  0  0  0  0  0
   -0.5430   -2.4970    0.0000 C   0  0  0  0  0  0  0  0  0  0  0  0
   -0.0130   -3.0300    0.0000 C   0  0  1  0  0  0  0  0  0  0  0  0
   -0.1990   -3.7660    0.0000 C   0  0  2  0  0  0  0  0  0  0  0  0
    0.3320   -4.2820    0.0000 C   0  0  2  0  0  0  0  0  0  0  0  0
    1.0610   -4.0850    0.0000 N   0  0  0  0  0  0  0  0  0  0  0  0
    1.2500   -3.3610    0.0000 C   0  0  0  0  0  0  0  0  0  0  0  0
    0.7120   -2.8310    0.0000 C   0  0  0  0  0  0  0  0  0  0  0  0
    0.1460   -5.0100    0.0000 C   0  0  0  0  0  0  0  0  0  0  0  0
   -0.5830   -5.2140    0.0000 N   0  0  0  0  0  0  0  0  0  0  0  0
    0.6800   -5.5360    0.0000 O   0  0  0  0  0  0  0  0  0  0  0  0
    1.5940   -4.6100    0.0000 S   0  0  0  0  0  0  0  0  0  0  0  0
    2.3160   -4.4080    0.0000 C   0  0  0  0  0  0  0  0  0  0  0  0
    0.8670   -4.8090    0.0000 O   0  0  0  0  0  0  0  0  0  0  0  0
    1.7910   -5.3280    0.0000 O   0  0  0  0  0  0  0  0  0  0  0  0
    2.8530   -4.9290    0.0000 C   0  0  0  0  0  0  0  0  0  0  0  0
    3.5740   -4.7270    0.0000 C   0  0  0  0  0  0  0  0  0  0  0  0
    3.7580   -3.9890    0.0000 C   0  0  0  0  0  0  0  0  0  0  0  0
    3.2140   -3.4740    0.0000 C   0  0  0  0  0  0  0  0  0  0  0  0
    2.5000   -3.6830    0.0000 C   0  0  0  0  0  0  0  0  0  0  0  0
    4.4840   -3.7820    0.0000 C   0  0  0  0  0  0  0  0  0  0  0  0
    5.0240   -4.3160    0.0000 C   0  0  0  0  0  0  0  0  0  0  0  0
    5.7490   -4.1050    0.0000 C   0  0  0  0  0  0  0  0  0  0  0  0
    5.9320   -3.3700    0.0000 C   0  0  0  0  0  0  0  0  0  0  0  0
    5.3830   -2.8510    0.0000 C   0  0  0  0  0  0  0  0  0  0  0  0
    4.6640   -3.0610    0.0000 C   0  0  0  0  0  0  0  0  0  0  0  0
    6.6490   -3.1620    0.0000 O   0  0  0  0  0  0  0  0  0  0  0  0
   -0.7700   -5.9410    0.0000 O   0  0  0  0  0  0  0  0  0  0  0  0
    7.2920   -3.5290    0.0000 C   0  0  0  0  0  0  0  0  0  0  0  0
    7.2870   -4.2670    0.0000 F   0  0  0  0  0  0  0  0  0  0  0  0
    7.9290   -3.1580    0.0000 F   0  0  0  0  0  0  0  0  0  0  0  0
    7.8120   -4.0500    0.0000 F   0  0  0  0  0  0  0  0  0  0  0  0
   -0.4530   -4.7330    0.0000 H   0  0  0  0  0  0  0  0  0  0  0  0
    0.2440   -2.0630    0.0000 H   0  0  0  0  0  0  0  0  0  0  0  0
 14 15  1  0  0  0  0
  3  6  1  0  0  0  0
 14 16  2  0  0  0  0
  5  4  1  0  0  0  0
 14 17  2  0  0  0  0
  5 10  1  0  0  0  0
 15 18  2  0  0  0  0
  6  7  1  0  0  0  0
 18 19  1  0  0  0  0
  7  8  1  0  0  0  0
 19 20  2  0  0  0  0
  8  9  1  0  0  0  0
 20 21  1  0  0  0  0
  9 10  1  0  0  0  0
 21 22  2  0  0  0  0
 22 15  1  0  0  0  0
  5  6  1  0  0  0  0
 20 23  1  0  0  0  0
  7 11  1  6  0  0  0
 23 24  2  0  0  0  0
 24 25  1  0  0  0  0
  1  2  1  0  0  0  0
 25 26  2  0  0  0  0
 11 12  1  0  0  0  0
 26 27  1  0  0  0  0
 11 13  2  0  0  0  0
 27 28  2  0  0  0  0
 28 23  1  0  0  0  0
  1  4  1  0  0  0  0
 26 29  1  0  0  0  0
 12 30  1  0  0  0  0
 29 31  1  0  0  0  0
 31 32  1  0  0  0  0
  8 14  1  0  0  0  0
 31 33  1  0  0  0  0
  2  3  1  0  0  0  0
 31 34  1  0  0  0  0
  6 35  1  1  0  0  0
  5 36  1  1  0  0  0
M  END
>  <ID_NEW>
CPDMM2188

>  <pIC50>
6.823908740944318

$$$$

  -MTS-   10172316422D 0   0.00000     0.00000     0

 34 37  0  0  1  0  0  0  0  0999 V2000
   -5.2850    2.4220    0.0000 C   0  0  2  0  0  0  0  0  0  0  0  0
   -4.6230    2.8020    0.0000 N   0  0  0  0  0  0  0  0  0  0  0  0
   -4.6300    3.5550    0.0000 C   0  0  0  0  0  0  0  0  0  0  0  0
   -5.2920    3.9340    0.0000 C   0  0  0  0  0  0  0  0  0  0  0  0
   -5.2780    1.6680    0.0000 C   0  0  0  0  0  0  0  0  0  0  0  0
   -5.9280    1.3000    0.0000 N   0  0  0  0  0  0  0  0  0  0  0  0
   -4.6240    1.2990    0.0000 O   0  0  0  0  0  0  0  0  0  0  0  0
   -3.3220    2.0500    0.0000 C   0  0  0  0  0  0  0  0  0  0  0  0
   -3.3230    1.3020    0.0000 C   0  0  0  0  0  0  0  0  0  0  0  0
   -2.6750    0.9220    0.0000 C   0  0  0  0  0  0  0  0  0  0  0  0
   -2.0210    1.3020    0.0000 C   0  0  0  0  0  0  0  0  0  0  0  0
   -2.0240    2.0540    0.0000 C   0  0  0  0  0  0  0  0  0  0  0  0
   -2.6770    2.4290    0.0000 C   0  0  0  0  0  0  0  0  0  0  0  0
   -3.9700    2.4250    0.0000 S   0  0  0  0  0  0  0  0  0  0  0  0
   -3.4420    2.9620    0.0000 O   0  0  0  0  0  0  0  0  0  0  0  0
   -4.5080    1.8960    0.0000 O   0  0  0  0  0  0  0  0  0  0  0  0
   -5.9330    2.7910    0.0000 C   0  0  1  0  0  0  0  0  0  0  0  0
   -5.9440    3.5540    0.0000 C   0  0  2  0  0  0  0  0  0  0  0  0
   -6.6000    3.9300    0.0000 C   0  0  0  0  0  0  0  0  0  0  0  0
   -7.2550    3.5530    0.0000 C   0  0  0  0  0  0  0  0  0  0  0  0
   -7.2570    2.7910    0.0000 C   0  0  0  0  0  0  0  0  0  0  0  0
   -6.5970    2.4060    0.0000 C   0  0  0  0  0  0  0  0  0  0  0  0
   -5.9220    0.5410    0.0000 O   0  0  0  0  0  0  0  0  0  0  0  0
   -1.3660    0.9250    0.0000 O   0  0  0  0  0  0  0  0  0  0  0  0
   -0.7130    1.3050    0.0000 C   0  0  0  0  0  0  0  0  0  0  0  0
   -0.0590    0.9310    0.0000 C   0  0  0  0  0  0  0  0  0  0  0  0
    0.5940    1.3070    0.0000 C   0  0  0  0  0  0  0  0  0  0  0  0
    0.5920    2.0660    0.0000 C   0  0  0  0  0  0  0  0  0  0  0  0
   -0.0700    2.4390    0.0000 C   0  0  0  0  0  0  0  0  0  0  0  0
   -0.7220    2.0570    0.0000 C   0  0  0  0  0  0  0  0  0  0  0  0
    1.2410    2.4490    0.0000 C   0  0  0  0  0  0  0  0  0  0  0  0
    1.8940    2.8310    0.0000 N   0  0  0  0  0  0  0  0  0  0  0  0
   -5.9470    4.5540    0.0000 H   0  0  0  0  0  0  0  0  0  0  0  0
   -5.9290    1.7910    0.0000 H   0  0  0  0  0  0  0  0  0  0  0  0
  1  5  1  6  0  0  0
  5  6  1  0  0  0  0
  5  7  2  0  0  0  0
  2 14  1  0  0  0  0
  8  9  2  0  0  0  0
  9 10  1  0  0  0  0
 10 11  2  0  0  0  0
 11 12  1  0  0  0  0
 12 13  2  0  0  0  0
 13  8  1  0  0  0  0
  8 14  1  0  0  0  0
 14 15  2  0  0  0  0
 14 16  2  0  0  0  0
 17 18  1  0  0  0  0
 17 22  1  0  0  0  0
 18 19  1  0  0  0  0
 19 20  1  0  0  0  0
 20 21  1  0  0  0  0
 21 22  1  0  0  0  0
  6 23  1  0  0  0  0
 11 24  1  0  0  0  0
 24 25  1  0  0  0  0
 25 26  2  0  0  0  0
 26 27  1  0  0  0  0
 27 28  2  0  0  0  0
 28 29  1  0  0  0  0
 29 30  2  0  0  0  0
 30 25  1  0  0  0  0
 18  4  1  0  0  0  0
 17  1  1  0  0  0  0
  1  2  1  0  0  0  0
  2  3  1  0  0  0  0
  3  4  1  0  0  0  0
 31 32  3  0  0  0  0
 28 31  1  0  0  0  0
 18 33  1  1  0  0  0
 17 34  1  1  0  0  0
M  END
>  <ID_NEW>
CPDMM2189

>  <pIC50>
6.823908740944318

$$$$

  -MTS-   10172316422D 0   0.00000     0.00000     0

 33 36  0  0  1  0  0  0  0  0999 V2000
    3.3040   -3.1000    0.0000 N   0  0  0  0  0  0  0  0  0  0  0  0
    0.4070   -1.9500    0.0000 C   0  0  0  0  0  0  0  0  0  0  0  0
    0.4060   -2.7770    0.0000 C   0  0  0  0  0  0  0  0  0  0  0  0
    1.1210   -3.1900    0.0000 C   0  0  0  0  0  0  0  0  0  0  0  0
    1.1190   -1.5370    0.0000 C   0  0  0  0  0  0  0  0  0  0  0  0
    1.8390   -2.7740    0.0000 C   0  0  0  0  0  0  0  0  0  0  0  0
    1.8340   -1.9460    0.0000 C   0  0  0  0  0  0  0  0  0  0  0  0
    2.4810   -1.4200    0.0000 C   0  0  0  0  0  0  0  0  0  0  0  0
    2.4950   -3.2890    0.0000 C   0  0  1  0  0  0  0  0  0  0  0  0
    3.2930   -1.5950    0.0000 C   0  0  0  0  0  0  0  0  0  0  0  0
    3.6580   -2.3410    0.0000 C   0  0  0  0  0  0  0  0  0  0  0  0
    2.3170   -4.0940    0.0000 C   0  0  0  0  0  0  0  0  0  0  0  0
    1.5300   -4.3430    0.0000 N   0  0  0  0  0  0  0  0  0  0  0  0
    2.9260   -4.6510    0.0000 O   0  0  0  0  0  0  0  0  0  0  0  0
    1.3520   -5.1480    0.0000 O   0  0  0  0  0  0  0  0  0  0  0  0
    3.8250   -3.7400    0.0000 S   0  0  0  0  0  0  0  0  0  0  0  0
    4.6170   -3.5210    0.0000 C   0  0  0  0  0  0  0  0  0  0  0  0
    3.0210   -3.9500    0.0000 O   0  0  0  0  0  0  0  0  0  0  0  0
    3.8170   -4.5620    0.0000 O   0  0  0  0  0  0  0  0  0  0  0  0
    5.2010   -4.1000    0.0000 C   0  0  0  0  0  0  0  0  0  0  0  0
    5.9930   -3.8810    0.0000 C   0  0  0  0  0  0  0  0  0  0  0  0
    6.2000   -3.0850    0.0000 C   0  0  0  0  0  0  0  0  0  0  0  0
    5.6090   -2.5070    0.0000 C   0  0  0  0  0  0  0  0  0  0  0  0
    4.8200   -2.7290    0.0000 C   0  0  0  0  0  0  0  0  0  0  0  0
    6.9940   -2.8640    0.0000 O   0  0  0  0  0  0  0  0  0  0  0  0
    7.5830   -3.4410    0.0000 C   0  0  0  0  0  0  0  0  0  0  0  0
    7.3750   -4.2370    0.0000 C   0  0  0  0  0  0  0  0  0  0  0  0
    7.9640   -4.8140    0.0000 C   0  0  0  0  0  0  0  0  0  0  0  0
    8.7590   -4.5930    0.0000 C   0  0  0  0  0  0  0  0  0  0  0  0
    8.9640   -3.7900    0.0000 C   0  0  0  0  0  0  0  0  0  0  0  0
    8.3740   -3.2160    0.0000 C   0  0  0  0  0  0  0  0  0  0  0  0
    9.3490   -5.1650    0.0000 C   0  0  0  0  0  0  0  0  0  0  0  0
    9.9390   -5.7420    0.0000 N   0  0  0  0  0  0  0  0  0  0  0  0
  2  3  2  0  0  0  0
  3  4  1  0  0  0  0
  4  6  2  0  0  0  0
  7  5  2  0  0  0  0
  5  2  1  0  0  0  0
  6  7  1  0  0  0  0
  7  8  1  0  0  0  0
  6  9  1  0  0  0  0
  8 10  1  0  0  0  0
  9  1  1  0  0  0  0
 10 11  1  0  0  0  0
  1 11  1  0  0  0  0
  9 12  1  6  0  0  0
 12 13  1  0  0  0  0
 12 14  2  0  0  0  0
 13 15  1  0  0  0  0
  1 16  1  0  0  0  0
 16 17  1  0  0  0  0
 16 18  2  0  0  0  0
 16 19  2  0  0  0  0
 17 20  2  0  0  0  0
 20 21  1  0  0  0  0
 21 22  2  0  0  0  0
 22 23  1  0  0  0  0
 23 24  2  0  0  0  0
 24 17  1  0  0  0  0
 22 25  1  0  0  0  0
 25 26  1  0  0  0  0
 26 27  2  0  0  0  0
 27 28  1  0  0  0  0
 28 29  2  0  0  0  0
 29 30  1  0  0  0  0
 30 31  2  0  0  0  0
 31 26  1  0  0  0  0
 32 33  3  0  0  0  0
 29 32  1  0  0  0  0
M  END
>  <ID_NEW>
CPDMM2190

>  <pIC50>
6.820155331175602

$$$$

  SciTegic12180813012D

 32 35  0  0  0  0            999 V2000
   -5.9750    1.7958    0.0000 S   0  0
   -6.7042    1.7833    0.0000 N   0  0
   -7.0625    1.1458    0.0000 C   0  0
   -7.8125    1.1375    0.0000 C   0  0
   -6.6917    0.5083    0.0000 C   0  0
   -8.1917    1.7625    0.0000 C   0  0
   -7.0792    2.4208    0.0000 C   0  0
   -5.2333    1.8083    0.0000 C   0  0
   -0.0333    1.9000    0.0000 N   0  0
   -5.9708    1.0625    0.0000 O   0  0
   -5.9875    2.5375    0.0000 O   0  0
   -8.1583    0.4958    0.0000 C   0  0
   -0.7708    1.8833    0.0000 C   0  0
   -7.8292    2.4083    0.0000 C   0  0
   -5.9667    0.5208    0.0000 O   0  0
   -3.7458    1.8333    0.0000 C   0  0
   -8.9292    1.7458    0.0000 C   0  0
   -3.0000    1.8458    0.0000 C   0  0
   -7.0542   -0.1250    0.0000 N   0  0
   -4.8583    1.1833    0.0000 C   0  0
   -4.8708    2.4583    0.0000 C   0  0
   -4.1083    1.1958    0.0000 C   0  0
   -4.1333    2.4708    0.0000 C   0  0
   -2.6458    2.4958    0.0000 C   0  0
   -2.6208    1.2208    0.0000 C   0  0
   -1.5083    1.8833    0.0000 C   0  0
   -9.2792    1.1208    0.0000 C   0  0
   -8.8917    0.4833    0.0000 C   0  0
   -1.9042    2.5083    0.0000 C   0  0
   -1.8833    1.2375    0.0000 C   0  0
   -6.7000   -0.7667    0.0000 O   0  0
  -10.0167    1.1000    0.0000 O   0  0
  2  1  1  0
  3  2  1  0
  4  3  1  0
  5  3  1  0
  6 14  1  0
  7  2  1  0
  8  1  1  0
  9 13  3  0
 10  1  2  0
 11  1  2  0
 12  4  2  0
 13 26  1  0
 14  7  1  0
 15  5  2  0
 16 22  2  0
 17  6  2  0
 18 16  1  0
 19  5  1  0
 20  8  2  0
 21  8  1  0
 22 20  1  0
 23 21  2  0
 24 18  1  0
 25 18  2  0
 26 29  1  0
 27 17  1  0
 28 12  1  0
 29 24  2  0
 30 25  1  0
 31 19  1  0
 32 27  1  0
 23 16  1  0
  6  4  1  0
 27 28  2  0
 26 30  2  0
M  END
>  <ID_NEW>
CPDMM2191

>  <pIC50>
6.795880017344074

$$$$

  -MTS-   10172316422D 0   0.00000     0.00000     0

 31 34  0  0  1  0  0  0  0  0999 V2000
   -3.7210    1.4880    0.0000 C   0  0  1  0  0  0  0  0  0  0  0  0
   -3.0090    1.8960    0.0000 N   0  0  0  0  0  0  0  0  0  0  0  0
   -3.0090    2.7210    0.0000 C   0  0  0  0  0  0  0  0  0  0  0  0
   -3.7210    3.1380    0.0000 C   0  0  0  0  0  0  0  0  0  0  0  0
   -4.4330    1.8960    0.0000 C   0  0  1  0  0  0  0  0  0  0  0  0
   -4.4380    2.7210    0.0000 C   0  0  2  0  0  0  0  0  0  0  0  0
   -5.2240    2.9710    0.0000 O   0  0  0  0  0  0  0  0  0  0  0  0
   -5.7050    2.3010    0.0000 C   0  0  0  0  0  0  0  0  0  0  0  0
   -5.2160    1.6370    0.0000 C   0  0  0  0  0  0  0  0  0  0  0  0
   -3.7210    0.6630    0.0000 C   0  0  0  0  0  0  0  0  0  0  0  0
   -4.4340    0.2490    0.0000 N   0  0  0  0  0  0  0  0  0  0  0  0
   -3.0050    0.2490    0.0000 O   0  0  0  0  0  0  0  0  0  0  0  0
   -4.4320   -0.5760    0.0000 O   0  0  0  0  0  0  0  0  0  0  0  0
   -2.2950    1.4820    0.0000 S   0  0  0  0  0  0  0  0  0  0  0  0
   -2.8830    0.9000    0.0000 O   0  0  0  0  0  0  0  0  0  0  0  0
   -1.8870    0.7710    0.0000 O   0  0  0  0  0  0  0  0  0  0  0  0
   -1.5000    1.7000    0.0000 C   0  0  0  0  0  0  0  0  0  0  0  0
   -0.9150    1.1170    0.0000 C   0  0  0  0  0  0  0  0  0  0  0  0
   -0.1200    1.3340    0.0000 C   0  0  0  0  0  0  0  0  0  0  0  0
    0.0900    2.1330    0.0000 C   0  0  0  0  0  0  0  0  0  0  0  0
   -0.5010    2.7140    0.0000 C   0  0  0  0  0  0  0  0  0  0  0  0
   -1.2940    2.4940    0.0000 C   0  0  0  0  0  0  0  0  0  0  0  0
    0.8850    2.3520    0.0000 C   0  0  0  0  0  0  0  0  0  0  0  0
    1.4680    1.7700    0.0000 C   0  0  0  0  0  0  0  0  0  0  0  0
    2.2630    1.9880    0.0000 C   0  0  0  0  0  0  0  0  0  0  0  0
    2.4720    2.7870    0.0000 C   0  0  0  0  0  0  0  0  0  0  0  0
    1.8800    3.3680    0.0000 C   0  0  0  0  0  0  0  0  0  0  0  0
    1.0870    3.1470    0.0000 C   0  0  0  0  0  0  0  0  0  0  0  0
    3.2670    3.0070    0.0000 Cl  0  0  0  0  0  0  0  0  0  0  0  0
   -4.5470    3.7150    0.0000 H   0  0  0  0  0  0  0  0  0  0  0  0
   -4.5340    0.9010    0.0000 H   0  0  0  0  0  0  0  0  0  0  0  0
  6  4  1  0  0  0  0
  5  1  1  0  0  0  0
  1  2  1  0  0  0  0
  2  3  1  0  0  0  0
  3  4  1  0  0  0  0
  5  6  1  0  0  0  0
  6  7  1  0  0  0  0
  7  8  1  0  0  0  0
  8  9  1  0  0  0  0
  9  5  1  0  0  0  0
  1 10  1  6  0  0  0
 10 11  1  0  0  0  0
 10 12  2  0  0  0  0
 11 13  1  0  0  0  0
  2 14  1  0  0  0  0
 14 15  2  0  0  0  0
 14 16  2  0  0  0  0
 14 17  1  0  0  0  0
 17 18  2  0  0  0  0
 18 19  1  0  0  0  0
 19 20  2  0  0  0  0
 20 21  1  0  0  0  0
 21 22  2  0  0  0  0
 22 17  1  0  0  0  0
 20 23  1  0  0  0  0
 23 24  2  0  0  0  0
 24 25  1  0  0  0  0
 25 26  2  0  0  0  0
 26 27  1  0  0  0  0
 27 28  2  0  0  0  0
 28 23  1  0  0  0  0
 26 29  1  0  0  0  0
  6 30  1  1  0  0  0
  5 31  1  1  0  0  0
M  END
>  <ID_NEW>
CPDMM2192

>  <pIC50>
6.772468071252423

$$$$

  -MTS-   10172316422D 0   0.00000     0.00000     0

 29 32  0  0  1  0  0  0  0  0999 V2000
   -5.3180    2.2750    0.0000 C   0  0  0  0  0  0  0  0  0  0  0  0
   -5.3190    1.5520    0.0000 C   0  0  0  0  0  0  0  0  0  0  0  0
   -4.6540    1.1930    0.0000 C   0  0  0  0  0  0  0  0  0  0  0  0
   -4.6560    2.6460    0.0000 C   0  0  0  0  0  0  0  0  0  0  0  0
   -3.9950    2.2790    0.0000 C   0  0  0  0  0  0  0  0  0  0  0  0
   -3.9960    1.5540    0.0000 C   0  0  0  0  0  0  0  0  0  0  0  0
   -3.3260    1.1930    0.0000 C   0  0  0  0  0  0  0  0  0  0  0  0
   -2.6560    1.5510    0.0000 N   0  0  0  0  0  0  0  0  0  0  0  0
   -2.6550    2.2760    0.0000 C   0  0  2  0  0  0  0  0  0  0  0  0
   -3.3250    2.6460    0.0000 C   0  0  0  0  0  0  0  0  0  0  0  0
   -1.9840    2.6490    0.0000 C   0  0  0  0  0  0  0  0  0  0  0  0
   -1.3220    2.2720    0.0000 N   0  0  0  0  0  0  0  0  0  0  0  0
   -1.9820    3.3700    0.0000 O   0  0  0  0  0  0  0  0  0  0  0  0
   -1.9860    1.1870    0.0000 S   0  0  0  0  0  0  0  0  0  0  0  0
   -1.3130    0.8200    0.0000 C   0  0  0  0  0  0  0  0  0  0  0  0
   -1.5960    1.8180    0.0000 O   0  0  0  0  0  0  0  0  0  0  0  0
   -2.3760    0.5550    0.0000 O   0  0  0  0  0  0  0  0  0  0  0  0
   -1.3140    0.0830    0.0000 C   0  0  0  0  0  0  0  0  0  0  0  0
   -0.6420   -0.2880    0.0000 C   0  0  0  0  0  0  0  0  0  0  0  0
    0.0390    0.0780    0.0000 C   0  0  0  0  0  0  0  0  0  0  0  0
    0.0400    0.8190    0.0000 C   0  0  0  0  0  0  0  0  0  0  0  0
   -0.6330    1.1820    0.0000 C   0  0  0  0  0  0  0  0  0  0  0  0
    0.7070   -0.2820    0.0000 N   0  0  0  0  0  0  0  0  0  0  0  0
    0.6960   -1.0010    0.0000 C   0  0  0  0  0  0  0  0  0  0  0  0
    1.3550   -1.3690    0.0000 C   0  0  0  0  0  0  0  0  0  0  0  0
    2.0270   -1.0110    0.0000 S   0  0  0  0  0  0  0  0  0  0  0  0
    2.0310   -0.2900    0.0000 C   0  0  0  0  0  0  0  0  0  0  0  0
    1.3590    0.0790    0.0000 C   0  0  0  0  0  0  0  0  0  0  0  0
   -0.6610    2.6570    0.0000 O   0  0  0  0  0  0  0  0  0  0  0  0
  7  8  1  0  0  0  0
 19 20  2  0  0  0  0
  8  9  1  0  0  0  0
 20 21  1  0  0  0  0
  9 10  1  0  0  0  0
 21 22  2  0  0  0  0
 22 15  1  0  0  0  0
  5  6  1  0  0  0  0
 20 23  1  0  0  0  0
 23 24  1  0  0  0  0
  9 11  1  6  0  0  0
 11 12  1  0  0  0  0
  2  3  1  0  0  0  0
 11 13  2  0  0  0  0
 23 28  1  0  0  0  0
 24 25  1  0  0  0  0
 25 26  1  0  0  0  0
 26 27  1  0  0  0  0
 27 28  1  0  0  0  0
  3  6  2  0  0  0  0
  8 14  1  0  0  0  0
  1  2  2  0  0  0  0
 14 15  1  0  0  0  0
  5  4  2  0  0  0  0
 14 16  2  0  0  0  0
  4  1  1  0  0  0  0
 14 17  2  0  0  0  0
  5 10  1  0  0  0  0
 15 18  2  0  0  0  0
  6  7  1  0  0  0  0
 18 19  1  0  0  0  0
 12 29  1  0  0  0  0
M  END
>  <ID_NEW>
CPDMM2193

>  <pIC50>
6.698970004336019

$$$$

  -MTS-   10172316422D 0   0.00000     0.00000     0

 40 44  0  0  1  0  0  0  0  0999 V2000
   -5.7060    2.6120    0.0000 C   0  0  0  0  0  0  0  0  0  0  0  0
   -5.7070    2.1180    0.0000 C   0  0  0  0  0  0  0  0  0  0  0  0
   -5.2460    1.8680    0.0000 C   0  0  0  0  0  0  0  0  0  0  0  0
   -5.2480    2.8630    0.0000 C   0  0  0  0  0  0  0  0  0  0  0  0
   -4.7950    2.6200    0.0000 C   0  0  0  0  0  0  0  0  0  0  0  0
   -4.7960    2.1210    0.0000 C   0  0  0  0  0  0  0  0  0  0  0  0
   -4.3350    1.8680    0.0000 C   0  0  0  0  0  0  0  0  0  0  0  0
   -3.8730    2.1180    0.0000 N   0  0  0  0  0  0  0  0  0  0  0  0
   -3.8720    2.6180    0.0000 C   0  0  2  0  0  0  0  0  0  0  0  0
   -4.3330    2.8630    0.0000 C   0  0  0  0  0  0  0  0  0  0  0  0
   -3.4090    2.8660    0.0000 C   0  0  0  0  0  0  0  0  0  0  0  0
   -2.9560    2.6100    0.0000 N   0  0  0  0  0  0  0  0  0  0  0  0
   -3.4070    3.3620    0.0000 O   0  0  0  0  0  0  0  0  0  0  0  0
   -3.4110    1.8660    0.0000 S   0  0  0  0  0  0  0  0  0  0  0  0
   -2.9510    1.6200    0.0000 C   0  0  0  0  0  0  0  0  0  0  0  0
   -3.1460    2.2970    0.0000 O   0  0  0  0  0  0  0  0  0  0  0  0
   -3.6800    1.4260    0.0000 O   0  0  0  0  0  0  0  0  0  0  0  0
   -2.9520    1.1040    0.0000 C   0  0  0  0  0  0  0  0  0  0  0  0
   -2.4880    0.8500    0.0000 C   0  0  0  0  0  0  0  0  0  0  0  0
   -2.0190    1.0990    0.0000 C   0  0  0  0  0  0  0  0  0  0  0  0
   -2.0190    1.6190    0.0000 C   0  0  0  0  0  0  0  0  0  0  0  0
   -2.4830    1.8610    0.0000 C   0  0  0  0  0  0  0  0  0  0  0  0
   -1.5640    0.8520    0.0000 N   0  0  0  0  0  0  0  0  0  0  0  0
   -1.5710    0.3580    0.0000 C   0  0  0  0  0  0  0  0  0  0  0  0
   -1.1190    0.1020    0.0000 C   0  0  0  0  0  0  0  0  0  0  0  0
   -0.6560    0.3510    0.0000 N   0  0  0  0  0  0  0  0  0  0  0  0
   -0.6520    0.8480    0.0000 C   0  0  0  0  0  0  0  0  0  0  0  0
   -1.1120    1.1000    0.0000 C   0  0  0  0  0  0  0  0  0  0  0  0
   -0.1980    0.0970    0.0000 C   0  0  0  0  0  0  0  0  0  0  0  0
   -0.1960   -0.4160    0.0000 C   0  0  0  0  0  0  0  0  0  0  0  0
    0.2570   -0.6660    0.0000 C   0  0  0  0  0  0  0  0  0  0  0  0
    0.7140   -0.4060    0.0000 C   0  0  0  0  0  0  0  0  0  0  0  0
    0.7100    0.1120    0.0000 C   0  0  0  0  0  0  0  0  0  0  0  0
    0.2520    0.3590    0.0000 C   0  0  0  0  0  0  0  0  0  0  0  0
    1.1550    0.3770    0.0000 C   0  0  0  0  0  0  0  0  0  0  0  0
    1.6060    0.1280    0.0000 N   0  0  0  0  0  0  0  0  0  0  0  0
    1.1420    0.8950    0.0000 O   0  0  0  0  0  0  0  0  0  0  0  0
    1.6150   -0.3900    0.0000 C   0  0  0  0  0  0  0  0  0  0  0  0
    2.0520    0.3930    0.0000 C   0  0  0  0  0  0  0  0  0  0  0  0
   -2.5030    2.8770    0.0000 O   0  0  0  0  0  0  0  0  0  0  0  0
  9 11  1  6  0  0  0
 11 12  1  0  0  0  0
  2  3  1  0  0  0  0
 11 13  2  0  0  0  0
 23 28  1  0  0  0  0
 24 25  1  0  0  0  0
 25 26  1  0  0  0  0
 26 27  1  0  0  0  0
 27 28  1  0  0  0  0
  3  6  2  0  0  0  0
 26 29  1  0  0  0  0
  8 14  1  0  0  0  0
  1  2  2  0  0  0  0
 14 15  1  0  0  0  0
  5  4  2  0  0  0  0
 14 16  2  0  0  0  0
  4  1  1  0  0  0  0
 14 17  2  0  0  0  0
  5 10  1  0  0  0  0
 15 18  2  0  0  0  0
  6  7  1  0  0  0  0
 18 19  1  0  0  0  0
 29 30  2  0  0  0  0
  7  8  1  0  0  0  0
 30 31  1  0  0  0  0
 19 20  2  0  0  0  0
 31 32  2  0  0  0  0
  8  9  1  0  0  0  0
 32 33  1  0  0  0  0
 20 21  1  0  0  0  0
 33 34  2  0  0  0  0
 34 29  1  0  0  0  0
  9 10  1  0  0  0  0
 33 35  1  0  0  0  0
 21 22  2  0  0  0  0
 35 36  1  0  0  0  0
 22 15  1  0  0  0  0
 35 37  2  0  0  0  0
  5  6  1  0  0  0  0
 36 38  1  0  0  0  0
 20 23  1  0  0  0  0
 36 39  1  0  0  0  0
 23 24  1  0  0  0  0
 12 40  1  0  0  0  0
M  END
>  <ID_NEW>
CPDMM2194

>  <pIC50>
6.698970004336019

$$$$

  -MTS-   10172316422D 0   0.00000     0.00000     0

 39 42  0  0  1  0  0  0  0  0999 V2000
   -5.8310    0.2750    0.0000 C   0  0  0  0  0  0  0  0  0  0  0  0
   -5.8320   -0.2360    0.0000 C   0  0  0  0  0  0  0  0  0  0  0  0
   -5.3920   -0.4900    0.0000 C   0  0  0  0  0  0  0  0  0  0  0  0
   -4.9380   -0.2350    0.0000 C   0  0  0  0  0  0  0  0  0  0  0  0
   -5.3940    0.5340    0.0000 C   0  0  0  0  0  0  0  0  0  0  0  0
   -4.9380    0.2760    0.0000 C   0  0  0  0  0  0  0  0  0  0  0  0
   -4.4970    0.5360    0.0000 C   0  0  0  0  0  0  0  0  0  0  0  0
   -4.4970    1.0460    0.0000 N   0  0  0  0  0  0  0  0  0  0  0  0
   -4.9490    1.3080    0.0000 C   0  0  2  0  0  0  0  0  0  0  0  0
   -5.3960    1.0470    0.0000 C   0  0  0  0  0  0  0  0  0  0  0  0
   -4.9460    1.8250    0.0000 C   0  0  0  0  0  0  0  0  0  0  0  0
   -4.5120    2.0720    0.0000 N   0  0  0  0  0  0  0  0  0  0  0  0
   -5.3950    2.0740    0.0000 O   0  0  0  0  0  0  0  0  0  0  0  0
   -4.0040    1.1790    0.0000 S   0  0  0  0  0  0  0  0  0  0  0  0
   -4.0040    1.7000    0.0000 O   0  0  0  0  0  0  0  0  0  0  0  0
   -4.0040    0.6670    0.0000 O   0  0  0  0  0  0  0  0  0  0  0  0
   -3.5130    1.3190    0.0000 C   0  0  0  0  0  0  0  0  0  0  0  0
   -3.1460    0.9600    0.0000 C   0  0  0  0  0  0  0  0  0  0  0  0
   -2.6550    1.0990    0.0000 C   0  0  0  0  0  0  0  0  0  0  0  0
   -2.5210    1.5940    0.0000 C   0  0  0  0  0  0  0  0  0  0  0  0
   -2.8840    1.9620    0.0000 C   0  0  0  0  0  0  0  0  0  0  0  0
   -3.3850    1.8160    0.0000 C   0  0  0  0  0  0  0  0  0  0  0  0
   -2.0790    1.8580    0.0000 C   0  0  0  0  0  0  0  0  0  0  0  0
   -1.6320    1.5950    0.0000 C   0  0  0  0  0  0  0  0  0  0  0  0
   -1.1920    1.8640    0.0000 C   0  0  0  0  0  0  0  0  0  0  0  0
   -0.7450    1.6110    0.0000 C   0  0  0  0  0  0  0  0  0  0  0  0
   -0.3050    1.8850    0.0000 N   0  0  0  0  0  0  0  0  0  0  0  0
    0.1460    1.6270    0.0000 C   0  0  0  0  0  0  0  0  0  0  0  0
    0.5880    1.8940    0.0000 C   0  0  0  0  0  0  0  0  0  0  0  0
    0.6000    2.3720    0.0000 N   0  0  0  0  0  0  0  0  0  0  0  0
    0.1280    2.6510    0.0000 C   0  0  0  0  0  0  0  0  0  0  0  0
   -0.3150    2.3950    0.0000 C   0  0  0  0  0  0  0  0  0  0  0  0
    1.0240    2.6770    0.0000 C   0  0  0  0  0  0  0  0  0  0  0  0
    1.4710    2.4260    0.0000 O   0  0  0  0  0  0  0  0  0  0  0  0
    1.0100    3.1920    0.0000 O   0  0  0  0  0  0  0  0  0  0  0  0
    1.4760    1.9030    0.0000 C   0  0  0  0  0  0  0  0  0  0  0  0
    1.9260    1.6600    0.0000 C   0  0  0  0  0  0  0  0  0  0  0  0
    1.0350    1.6430    0.0000 C   0  0  0  0  0  0  0  0  0  0  0  0
   -4.5080    2.5720    0.0000 O   0  0  0  0  0  0  0  0  0  0  0  0
  9 11  1  6  0  0  0
 23 24  1  0  0  0  0
 24 25  1  0  0  0  0
 11 12  1  0  0  0  0
  2  3  1  0  0  0  0
 11 13  2  0  0  0  0
  1  2  2  0  0  0  0
  8 14  1  0  0  0  0
  3  4  2  0  0  0  0
 14 15  2  0  0  0  0
  4  6  1  0  0  0  0
 14 16  2  0  0  0  0
  5  1  1  0  0  0  0
 14 17  1  0  0  0  0
  5 10  1  0  0  0  0
 25 26  1  0  0  0  0
 17 18  2  0  0  0  0
 26 27  1  0  0  0  0
 27 28  1  0  0  0  0
  6  7  1  0  0  0  0
 18 19  1  0  0  0  0
  7  8  1  0  0  0  0
 19 20  2  0  0  0  0
  8  9  1  0  0  0  0
 27 32  1  0  0  0  0
 28 29  1  0  0  0  0
 29 30  1  0  0  0  0
 30 31  1  0  0  0  0
 31 32  1  0  0  0  0
 20 21  1  0  0  0  0
 30 33  1  0  0  0  0
  9 10  1  0  0  0  0
 33 34  1  0  0  0  0
 21 22  2  0  0  0  0
 33 35  2  0  0  0  0
 22 17  1  0  0  0  0
 34 36  1  0  0  0  0
  5  6  2  0  0  0  0
 36 37  1  0  0  0  0
 20 23  1  0  0  0  0
 36 38  1  0  0  0  0
 12 39  1  0  0  0  0
M  END
>  <ID_NEW>
CPDMM2195

>  <pIC50>
6.698970004336019

$$$$

  SciTegic12180812342D

 29 32  0  0  0  0            999 V2000
   -5.7389    1.9458    0.0000 C   0  0
   -5.7400    1.1435    0.0000 C   0  0
   -5.0586    0.7473    0.0000 C   0  0
   -5.0604    2.3419    0.0000 C   0  0
   -4.3699    1.9495    0.0000 C   0  0
   -4.3665    1.1414    0.0000 C   0  0
   -3.6723    0.7468    0.0000 C   0  0
   -2.9812    1.1515    0.0000 N   0  0
   -2.9847    1.9512    0.0000 C   0  0
   -3.6834    2.3505    0.0000 C   0  0
   -3.6743   -0.0491    0.0000 C   0  0
   -4.3529   -0.4505    0.0000 N   0  0
   -2.9824   -0.4467    0.0000 O   0  0
   -2.2917    0.7583    0.0000 S   0  0
   -1.6167    1.1583    0.0000 C   0  0
   -2.8625    0.1916    0.0000 O   0  0
   -1.7374    0.1916    0.0000 O   0  0
   -0.9208    0.7592    0.0000 C   0  0
   -0.2380    1.1584    0.0000 N   0  0
   -0.2422    1.9555    0.0000 C   0  0
   -0.9351    2.3515    0.0000 C   0  0
   -1.6149    1.9499    0.0000 C   0  0
    0.4462    2.3554    0.0000 N   0  0
    1.1372    1.9631    0.0000 C   0  0
    1.8196    2.3599    0.0000 C   0  0
    1.8194    3.1531    0.0000 O   0  0
    1.1271    3.5481    0.0000 C   0  0
    0.4435    3.1498    0.0000 C   0  0
   -4.3441   -1.2755    0.0000 O   0  0
 14 17  2  0
  5 10  1  0
 15 18  2  0
  6  7  1  0
 18 19  1  0
  7  8  1  0
 19 20  2  0
  8  9  1  0
 20 21  1  0
  9 10  1  0
 21 22  2  0
 22 15  1  0
  5  6  1  0
  7 11  1  0
  2  3  1  0
 11 12  1  0
 11 13  2  0
  3  6  2  0
 20 23  1  0
 23 24  1  0
  8 14  1  0
  1  2  2  0
 14 15  1  0
  5  4  2  0
 23 28  1  0
 24 25  1  0
 25 26  1  0
 26 27  1  0
 27 28  1  0
 14 16  2  0
  4  1  1  0
 12 29  1  0
M  END
>  <ID_NEW>
CPDMM2196

>  <pIC50>
6.698970004336019

$$$$

  SciTegic12180812342D

 30 33  0  0  0  0            999 V2000
   -2.6514   -0.1625    0.0000 C   0  0
   -2.6526   -0.9898    0.0000 C   0  0
   -1.9378   -1.4027    0.0000 C   0  0
   -1.9396    0.2503    0.0000 C   0  0
   -1.2242   -0.1588    0.0000 C   0  0
   -1.2208   -0.9919    0.0000 C   0  0
   -0.5016   -1.4032    0.0000 C   0  0
    0.2188   -0.9860    0.0000 N   0  0
    0.2154   -0.1529    0.0000 C   0  0
   -0.5084    0.2630    0.0000 C   0  0
   -0.4993   -2.2282    0.0000 C   0  0
    0.9344   -1.3966    0.0000 S   0  0
    1.6477   -0.9821    0.0000 C   0  0
    2.3633   -1.3927    0.0000 C   0  0
    3.0767   -0.9782    0.0000 C   0  0
    0.5167   -2.1083    0.0000 O   0  0
    1.5167   -1.9792    0.0000 O   0  0
   -1.2113   -2.6463    0.0000 O   0  0
    0.2177   -2.6425    0.0000 O   0  0
    3.7882   -1.3916    0.0000 C   0  0
    4.5010   -0.9778    0.0000 C   0  0
    4.4992   -0.1519    0.0000 C   0  0
    3.7786    0.2584    0.0000 C   0  0
    3.0687   -0.1577    0.0000 C   0  0
    5.2120    0.2635    0.0000 C   0  0
    5.9252   -0.1471    0.0000 C   0  0
    6.6375    0.2676    0.0000 C   0  0
    6.6346    1.0935    0.0000 C   0  0
    5.9134    1.5029    0.0000 C   0  0
    5.2041    1.0858    0.0000 C   0  0
  1  2  2  0
 14 15  1  0
  5  4  2  0
 12 16  2  0
  4  1  1  0
 12 17  2  0
  5 10  1  0
  6  7  1  0
 11 18  1  0
 11 19  2  0
  7  8  1  0
 15 20  2  0
  8  9  1  0
 20 21  1  0
  9 10  1  0
 21 22  2  0
  5  6  1  0
 22 23  1  0
  7 11  1  0
 23 24  2  0
 24 15  1  0
 22 25  1  0
  8 12  1  0
 25 26  2  0
  2  3  1  0
 26 27  1  0
 12 13  1  0
 27 28  2  0
  3  6  2  0
 28 29  1  0
 13 14  1  0
 29 30  2  0
 30 25  1  0
M  END
>  <ID_NEW>
CPDMM2197

>  <pIC50>
6.698970004336019

$$$$

  -MTS-   10172316422D 0   0.00000     0.00000     0

 35 38  0  0  1  0  0  0  0  0999 V2000
   -2.2500    1.9210    0.0000 S   0  0  0  0  0  0  0  0  0  0  0  0
   -1.4360    2.0530    0.0000 C   0  0  0  0  0  0  0  0  0  0  0  0
   -0.9150    1.4120    0.0000 C   0  0  0  0  0  0  0  0  0  0  0  0
   -0.1020    1.5440    0.0000 C   0  0  0  0  0  0  0  0  0  0  0  0
    0.1910    2.3160    0.0000 C   0  0  0  0  0  0  0  0  0  0  0  0
   -0.3350    2.9560    0.0000 C   0  0  0  0  0  0  0  0  0  0  0  0
   -1.1470    2.8210    0.0000 C   0  0  0  0  0  0  0  0  0  0  0  0
    1.0060    2.4490    0.0000 O   0  0  0  0  0  0  0  0  0  0  0  0
    1.8170    2.5820    0.0000 C   0  0  0  0  0  0  0  0  0  0  0  0
    2.3370    1.9430    0.0000 C   0  0  0  0  0  0  0  0  0  0  0  0
    3.1480    2.0760    0.0000 C   0  0  0  0  0  0  0  0  0  0  0  0
    3.4400    2.8460    0.0000 C   0  0  0  0  0  0  0  0  0  0  0  0
    2.9140    3.4840    0.0000 C   0  0  0  0  0  0  0  0  0  0  0  0
    2.1040    3.3480    0.0000 C   0  0  0  0  0  0  0  0  0  0  0  0
    4.2530    2.9810    0.0000 S   0  0  0  0  0  0  0  0  0  0  0  0
    5.0660    3.1150    0.0000 C   0  0  0  0  0  0  0  0  0  0  0  0
    4.1150    3.7960    0.0000 O   0  0  0  0  0  0  0  0  0  0  0  0
    4.3800    2.1670    0.0000 O   0  0  0  0  0  0  0  0  0  0  0  0
   -2.8920    1.4030    0.0000 O   0  0  0  0  0  0  0  0  0  0  0  0
   -1.9120    1.1690    0.0000 O   0  0  0  0  0  0  0  0  0  0  0  0
   -5.8310    3.1540    0.0000 C   0  0  0  0  0  0  0  0  0  0  0  0
   -5.8320    2.3270    0.0000 C   0  0  0  0  0  0  0  0  0  0  0  0
   -5.1170    1.9140    0.0000 C   0  0  0  0  0  0  0  0  0  0  0  0
   -5.1190    3.5670    0.0000 C   0  0  0  0  0  0  0  0  0  0  0  0
   -4.4030    3.1580    0.0000 C   0  0  0  0  0  0  0  0  0  0  0  0
   -4.4000    2.3250    0.0000 C   0  0  0  0  0  0  0  0  0  0  0  0
   -3.6810    1.9130    0.0000 C   0  0  1  0  0  0  0  0  0  0  0  0
   -2.9600    2.3310    0.0000 N   0  0  0  0  0  0  0  0  0  0  0  0
   -2.9640    3.1640    0.0000 C   0  0  0  0  0  0  0  0  0  0  0  0
   -3.6880    3.5800    0.0000 C   0  0  0  0  0  0  0  0  0  0  0  0
   -3.6780    1.0880    0.0000 C   0  0  0  0  0  0  0  0  0  0  0  0
   -4.3900    0.6700    0.0000 N   0  0  0  0  0  0  0  0  0  0  0  0
   -2.9610    0.6740    0.0000 O   0  0  0  0  0  0  0  0  0  0  0  0
   -1.2090    0.6410    0.0000 C   0  0  0  0  0  0  0  0  0  0  0  0
   -4.3960   -0.1540    0.0000 O   0  0  0  0  0  0  0  0  0  0  0  0
  1  2  1  0  0  0  0
  2  3  2  0  0  0  0
  3  4  1  0  0  0  0
  4  5  2  0  0  0  0
  5  6  1  0  0  0  0
  6  7  2  0  0  0  0
  7  2  1  0  0  0  0
  5  8  1  0  0  0  0
  8  9  1  0  0  0  0
  9 10  2  0  0  0  0
 10 11  1  0  0  0  0
 11 12  2  0  0  0  0
 12 13  1  0  0  0  0
 13 14  2  0  0  0  0
 14  9  1  0  0  0  0
 12 15  1  0  0  0  0
 15 16  1  0  0  0  0
 15 17  2  0  0  0  0
 15 18  2  0  0  0  0
  1 19  2  0  0  0  0
  1 20  2  0  0  0  0
 21 22  2  0  0  0  0
 22 23  1  0  0  0  0
 23 26  2  0  0  0  0
 25 24  2  0  0  0  0
 24 21  1  0  0  0  0
 25 26  1  0  0  0  0
 25 30  1  0  0  0  0
 26 27  1  0  0  0  0
 27 28  1  0  0  0  0
 28 29  1  0  0  0  0
 29 30  1  0  0  0  0
 27 31  1  1  0  0  0
 31 32  1  0  0  0  0
 31 33  2  0  0  0  0
 28  1  1  0  0  0  0
  3 34  1  0  0  0  0
 32 35  1  0  0  0  0
M  END
>  <ID_NEW>
CPDMM2198

>  <pIC50>
6.698970004336019

$$$$

  -MTS-   10172316422D 0   0.00000     0.00000     0

 34 37  0  0  1  0  0  0  0  0999 V2000
   -2.9330    1.8210    0.0000 N   0  0  0  0  0  0  0  0  0  0  0  0
   -5.8310    2.9710    0.0000 C   0  0  0  0  0  0  0  0  0  0  0  0
   -5.8320    2.1430    0.0000 C   0  0  0  0  0  0  0  0  0  0  0  0
   -5.1170    1.7310    0.0000 C   0  0  0  0  0  0  0  0  0  0  0  0
   -5.1190    3.3840    0.0000 C   0  0  0  0  0  0  0  0  0  0  0  0
   -4.3980    2.1460    0.0000 C   0  0  2  0  0  0  0  0  0  0  0  0
   -4.4030    2.9740    0.0000 C   0  0  1  0  0  0  0  0  0  0  0  0
   -3.7560    3.5000    0.0000 C   0  0  0  0  0  0  0  0  0  0  0  0
   -3.7420    1.6320    0.0000 C   0  0  1  0  0  0  0  0  0  0  0  0
   -2.9440    3.3260    0.0000 C   0  0  0  0  0  0  0  0  0  0  0  0
   -2.5790    2.5800    0.0000 C   0  0  0  0  0  0  0  0  0  0  0  0
   -3.9200    0.8260    0.0000 C   0  0  0  0  0  0  0  0  0  0  0  0
   -4.7070    0.5780    0.0000 N   0  0  0  0  0  0  0  0  0  0  0  0
   -3.3120    0.2690    0.0000 O   0  0  0  0  0  0  0  0  0  0  0  0
   -4.8850   -0.2280    0.0000 O   0  0  0  0  0  0  0  0  0  0  0  0
   -2.4130    1.1810    0.0000 S   0  0  0  0  0  0  0  0  0  0  0  0
   -1.6210    1.4000    0.0000 C   0  0  0  0  0  0  0  0  0  0  0  0
   -3.2170    0.9710    0.0000 O   0  0  0  0  0  0  0  0  0  0  0  0
   -2.4210    0.3580    0.0000 O   0  0  0  0  0  0  0  0  0  0  0  0
   -1.0360    0.8210    0.0000 C   0  0  0  0  0  0  0  0  0  0  0  0
   -0.2450    1.0400    0.0000 C   0  0  0  0  0  0  0  0  0  0  0  0
   -0.0380    1.8360    0.0000 C   0  0  0  0  0  0  0  0  0  0  0  0
   -0.6290    2.4130    0.0000 C   0  0  0  0  0  0  0  0  0  0  0  0
   -1.4180    2.1920    0.0000 C   0  0  0  0  0  0  0  0  0  0  0  0
    0.7570    2.0570    0.0000 O   0  0  0  0  0  0  0  0  0  0  0  0
    1.3460    1.4790    0.0000 C   0  0  0  0  0  0  0  0  0  0  0  0
    1.1380    0.6840    0.0000 C   0  0  0  0  0  0  0  0  0  0  0  0
    1.7260    0.1060    0.0000 C   0  0  0  0  0  0  0  0  0  0  0  0
    2.5220    0.3270    0.0000 C   0  0  0  0  0  0  0  0  0  0  0  0
    2.7260    1.1310    0.0000 C   0  0  0  0  0  0  0  0  0  0  0  0
    2.1370    1.7050    0.0000 C   0  0  0  0  0  0  0  0  0  0  0  0
    3.1120   -0.2490    0.0000 F   0  0  0  0  0  0  0  0  0  0  0  0
   -4.4850    3.9710    0.0000 H   0  0  0  0  0  0  0  0  0  0  0  0
   -4.4690    1.1490    0.0000 H   0  0  0  0  0  0  0  0  0  0  0  0
  2  3  1  0  0  0  0
  3  4  1  0  0  0  0
  4  6  1  0  0  0  0
  7  5  1  0  0  0  0
  5  2  1  0  0  0  0
  6  7  1  0  0  0  0
  7  8  1  0  0  0  0
  6  9  1  0  0  0  0
  8 10  1  0  0  0  0
  9  1  1  0  0  0  0
 10 11  1  0  0  0  0
  1 11  1  0  0  0  0
  9 12  1  6  0  0  0
 12 13  1  0  0  0  0
 12 14  2  0  0  0  0
 13 15  1  0  0  0  0
  1 16  1  0  0  0  0
 16 17  1  0  0  0  0
 16 18  2  0  0  0  0
 16 19  2  0  0  0  0
 17 20  2  0  0  0  0
 20 21  1  0  0  0  0
 21 22  2  0  0  0  0
 22 23  1  0  0  0  0
 23 24  2  0  0  0  0
 24 17  1  0  0  0  0
 22 25  1  0  0  0  0
 25 26  1  0  0  0  0
 26 27  2  0  0  0  0
 27 28  1  0  0  0  0
 28 29  2  0  0  0  0
 29 30  1  0  0  0  0
 30 31  2  0  0  0  0
 31 26  1  0  0  0  0
 29 32  1  0  0  0  0
  7 33  1  1  0  0  0
  6 34  1  1  0  0  0
M  END
>  <ID_NEW>
CPDMM2199

>  <pIC50>
6.681836454795997

$$$$

  -MTS-   10172316422D 0   0.00000     0.00000     0

 35 38  0  0  1  0  0  0  0  0999 V2000
   -2.2680    2.1520    0.0000 S   0  0  0  0  0  0  0  0  0  0  0  0
   -1.5540    2.5640    0.0000 C   0  0  0  0  0  0  0  0  0  0  0  0
   -0.8410    2.1470    0.0000 C   0  0  0  0  0  0  0  0  0  0  0  0
   -0.1270    2.5590    0.0000 C   0  0  0  0  0  0  0  0  0  0  0  0
   -0.1260    3.3850    0.0000 C   0  0  0  0  0  0  0  0  0  0  0  0
   -0.8460    3.7970    0.0000 C   0  0  0  0  0  0  0  0  0  0  0  0
   -1.5570    3.3830    0.0000 C   0  0  0  0  0  0  0  0  0  0  0  0
   -2.8560    1.5680    0.0000 O   0  0  0  0  0  0  0  0  0  0  0  0
   -1.8600    1.4390    0.0000 O   0  0  0  0  0  0  0  0  0  0  0  0
   -5.8330    3.3870    0.0000 C   0  0  0  0  0  0  0  0  0  0  0  0
   -5.8330    2.5620    0.0000 C   0  0  0  0  0  0  0  0  0  0  0  0
   -5.1210    2.1540    0.0000 C   0  0  0  0  0  0  0  0  0  0  0  0
   -5.1210    3.8040    0.0000 C   0  0  0  0  0  0  0  0  0  0  0  0
   -4.4090    3.3870    0.0000 C   0  0  0  0  0  0  0  0  0  0  0  0
   -4.4080    2.5620    0.0000 C   0  0  0  0  0  0  0  0  0  0  0  0
   -3.6970    2.1530    0.0000 C   0  0  1  0  0  0  0  0  0  0  0  0
   -2.9830    2.5640    0.0000 N   0  0  0  0  0  0  0  0  0  0  0  0
   -2.9840    3.3890    0.0000 C   0  0  0  0  0  0  0  0  0  0  0  0
   -3.6990    3.8030    0.0000 C   0  0  0  0  0  0  0  0  0  0  0  0
   -3.6970    1.3280    0.0000 C   0  0  0  0  0  0  0  0  0  0  0  0
   -2.9820    0.9140    0.0000 O   0  0  0  0  0  0  0  0  0  0  0  0
    0.5880    3.7980    0.0000 O   0  0  0  0  0  0  0  0  0  0  0  0
    1.3030    3.3870    0.0000 C   0  0  0  0  0  0  0  0  0  0  0  0
    1.2980    2.5610    0.0000 C   0  0  0  0  0  0  0  0  0  0  0  0
    2.0130    2.1500    0.0000 C   0  0  0  0  0  0  0  0  0  0  0  0
    2.7270    2.5630    0.0000 C   0  0  0  0  0  0  0  0  0  0  0  0
    2.7240    3.3930    0.0000 C   0  0  0  0  0  0  0  0  0  0  0  0
    2.0090    3.8000    0.0000 C   0  0  0  0  0  0  0  0  0  0  0  0
    3.4430    2.1530    0.0000 O   0  0  0  0  0  0  0  0  0  0  0  0
    4.1540    2.5710    0.0000 C   0  0  0  0  0  0  0  0  0  0  0  0
    4.8720    2.1640    0.0000 F   0  0  0  0  0  0  0  0  0  0  0  0
    4.1480    3.3960    0.0000 F   0  0  0  0  0  0  0  0  0  0  0  0
    4.8670    2.9870    0.0000 F   0  0  0  0  0  0  0  0  0  0  0  0
   -4.4120    0.9160    0.0000 N   0  0  0  0  0  0  0  0  0  0  0  0
   -4.4120    0.0910    0.0000 O   0  0  0  0  0  0  0  0  0  0  0  0
  1  2  1  0  0  0  0
  2  3  2  0  0  0  0
  3  4  1  0  0  0  0
  4  5  2  0  0  0  0
  5  6  1  0  0  0  0
  6  7  2  0  0  0  0
  7  2  1  0  0  0  0
  1  8  2  0  0  0  0
  1  9  2  0  0  0  0
 10 11  2  0  0  0  0
 10 13  1  0  0  0  0
 11 12  1  0  0  0  0
 12 15  2  0  0  0  0
 14 13  2  0  0  0  0
 14 15  1  0  0  0  0
 14 19  1  0  0  0  0
 15 16  1  0  0  0  0
 16 17  1  0  0  0  0
 17 18  1  0  0  0  0
 18 19  1  0  0  0  0
 16 20  1  1  0  0  0
 20 21  2  0  0  0  0
 17  1  1  0  0  0  0
  5 22  1  0  0  0  0
 22 23  1  0  0  0  0
 23 24  2  0  0  0  0
 24 25  1  0  0  0  0
 25 26  2  0  0  0  0
 26 27  1  0  0  0  0
 27 28  2  0  0  0  0
 28 23  1  0  0  0  0
 26 29  1  0  0  0  0
 29 30  1  0  0  0  0
 30 31  1  0  0  0  0
 30 32  1  0  0  0  0
 30 33  1  0  0  0  0
 20 34  1  0  0  0  0
 34 35  1  0  0  0  0
M  END
>  <ID_NEW>
CPDMM2200

>  <pIC50>
6.6777807052660805

$$$$

  SciTegic12180812532D

 33 36  0  0  0  0            999 V2000
  -10.5820   -5.9366    0.0000 C   0  0
  -10.5741   -3.5095    0.0000 O   0  0
  -11.4597   -4.7202    0.0000 C   0  0
   -9.1491   -3.9776    0.0000 C   0  0
   -9.1539   -5.4776    0.0000 C   0  0
   -7.8573   -6.2318    0.0000 C   0  0
   -6.5558   -5.4860    0.0000 N   0  0
   -6.5510   -3.9860    0.0000 C   0  0
   -7.8476   -3.2318    0.0000 C   0  0
   -7.8621   -7.7318    0.0000 C   0  0
   -6.5655   -8.4860    0.0000 O   0  0
   -9.1635   -8.4776    0.0000 O   0  0
   -2.7475   -5.5758    0.0000 C   0  0
   -4.1951   -5.1829    0.0000 C   0  0
   -4.5787   -3.7328    0.0000 C   0  0
   -3.5146   -2.6756    0.0000 C   0  0
   -2.0670   -3.0684    0.0000 C   0  0
   -1.6834   -4.5186    0.0000 C   0  0
   -5.2592   -6.2402    0.0000 S   0  0
   -6.1235   -7.4661    0.0000 O   0  0
   -4.1132   -7.2080    0.0000 O   0  0
   -1.0029   -2.0112    0.0000 O   0  0
    0.4447   -2.4041    0.0000 C   0  0
    1.5088   -1.3468    0.0000 C   0  0
    2.9564   -1.7397    0.0000 C   0  0
    3.3400   -3.1899    0.0000 C   0  0
    2.2759   -4.2471    0.0000 C   0  0
    0.8283   -3.8542    0.0000 C   0  0
    4.7876   -3.5827    0.0000 O   0  0
    5.1712   -5.0329    0.0000 C   0  0
    6.6712   -5.0377    0.0000 F   0  0
    3.6931   -5.2886    0.0000 F   0  0
    5.2971   -6.5276    0.0000 F   0  0
  6 10  1  0
 10 11  1  0
 10 12  2  0
  1  5  1  0
  4  2  1  0
  2  3  1  0
  3  1  1  0
  4  9  1  0
  5  6  1  0
  6  7  1  0
  7  8  1  0
  8  9  1  0
  4  5  1  0
 14 15  1  0
 22 23  1  0
 17 18  2  0
 23 24  2  0
 18 13  1  0
 24 25  1  0
 13 14  2  0
 25 26  2  0
 14 19  1  0
 26 27  1  0
 15 16  2  0
 27 28  2  0
 28 23  1  0
 26 29  1  0
 19 20  2  0
 29 30  1  0
 19 21  2  0
 16 17  1  0
 17 22  1  0
 30 31  1  0
 30 32  1  0
 30 33  1  0
  7 19  1  0
M  END
>  <ID_NEW>
CPDMM2201

>  <pIC50>
6.6729661417049435

$$$$

  -MTS-   10172316422D 0   0.00000     0.00000     0

 32 35  0  0  1  0  0  0  0  0999 V2000
    0.8880   -8.2030    0.0000 C   0  0  0  0  0  0  0  0  0  0  0  0
    0.1010   -8.4510    0.0000 N   0  0  0  0  0  0  0  0  0  0  0  0
    1.4960   -8.7600    0.0000 O   0  0  0  0  0  0  0  0  0  0  0  0
   -0.0770   -9.2570    0.0000 O   0  0  0  0  0  0  0  0  0  0  0  0
    2.3950   -7.8480    0.0000 S   0  0  0  0  0  0  0  0  0  0  0  0
    3.1870   -7.6290    0.0000 C   0  0  0  0  0  0  0  0  0  0  0  0
    1.5920   -8.0580    0.0000 O   0  0  0  0  0  0  0  0  0  0  0  0
    2.3870   -8.6710    0.0000 O   0  0  0  0  0  0  0  0  0  0  0  0
    3.7720   -8.2080    0.0000 C   0  0  0  0  0  0  0  0  0  0  0  0
    4.5640   -7.9890    0.0000 C   0  0  0  0  0  0  0  0  0  0  0  0
    4.7700   -7.1930    0.0000 C   0  0  0  0  0  0  0  0  0  0  0  0
    4.1800   -6.6160    0.0000 C   0  0  0  0  0  0  0  0  0  0  0  0
    3.3900   -6.8370    0.0000 C   0  0  0  0  0  0  0  0  0  0  0  0
    1.0650   -7.4010    0.0000 C   0  0  2  0  0  0  0  0  0  0  0  0
    1.8750   -7.2080    0.0000 N   0  0  0  0  0  0  0  0  0  0  0  0
    2.1110   -6.4140    0.0000 C   0  0  0  0  0  0  0  0  0  0  0  0
    1.5410   -5.8080    0.0000 C   0  0  0  0  0  0  0  0  0  0  0  0
    0.4910   -6.8020    0.0000 C   0  0  2  0  0  0  0  0  0  0  0  0
    0.7290   -6.0040    0.0000 C   0  0  1  0  0  0  0  0  0  0  0  0
    0.1590   -5.4020    0.0000 C   0  0  0  0  0  0  0  0  0  0  0  0
   -0.6510   -5.5930    0.0000 C   0  0  0  0  0  0  0  0  0  0  0  0
   -0.8890   -6.3920    0.0000 C   0  0  0  0  0  0  0  0  0  0  0  0
   -0.3160   -6.9990    0.0000 C   0  0  0  0  0  0  0  0  0  0  0  0
    5.5650   -6.9720    0.0000 C   0  0  0  0  0  0  0  0  0  0  0  0
    6.1530   -7.5510    0.0000 C   0  0  0  0  0  0  0  0  0  0  0  0
    6.9470   -7.3300    0.0000 C   0  0  0  0  0  0  0  0  0  0  0  0
    7.1540   -6.5300    0.0000 C   0  0  0  0  0  0  0  0  0  0  0  0
    6.5600   -5.9510    0.0000 C   0  0  0  0  0  0  0  0  0  0  0  0
    5.7680   -6.1750    0.0000 C   0  0  0  0  0  0  0  0  0  0  0  0
    7.9450   -6.3050    0.0000 F   0  0  0  0  0  0  0  0  0  0  0  0
    1.0130   -5.0450    0.0000 H   0  0  0  0  0  0  0  0  0  0  0  0
    0.2120   -7.7620    0.0000 H   0  0  0  0  0  0  0  0  0  0  0  0
  2  4  1  0  0  0  0
 15  5  1  0  0  0  0
  5  6  1  0  0  0  0
  5  7  2  0  0  0  0
  5  8  2  0  0  0  0
  6  9  2  0  0  0  0
  9 10  1  0  0  0  0
 10 11  2  0  0  0  0
 11 12  1  0  0  0  0
 12 13  2  0  0  0  0
 13  6  1  0  0  0  0
 14 15  1  0  0  0  0
 14 18  1  0  0  0  0
 15 16  1  0  0  0  0
 16 17  1  0  0  0  0
 17 19  1  0  0  0  0
 14  1  1  1  0  0  0
  1  2  1  0  0  0  0
  1  3  2  0  0  0  0
 18 19  1  0  0  0  0
 18 23  1  0  0  0  0
 19 20  1  0  0  0  0
 20 21  1  0  0  0  0
 21 22  1  0  0  0  0
 22 23  1  0  0  0  0
 11 24  1  0  0  0  0
 24 25  2  0  0  0  0
 25 26  1  0  0  0  0
 26 27  2  0  0  0  0
 27 28  1  0  0  0  0
 28 29  2  0  0  0  0
 29 24  1  0  0  0  0
 27 30  1  0  0  0  0
 19 31  1  6  0  0  0
 18 32  1  6  0  0  0
M  END
>  <ID_NEW>
CPDMM2202

>  <pIC50>
6.659210966274583

$$$$

  -MTS-   10172316422D 0   0.00000     0.00000     0

 32 35  0  0  1  0  0  0  0  0999 V2000
   -2.9420    0.4950    0.0000 C   0  0  0  0  0  0  0  0  0  0  0  0
   -3.1320   -0.2410    0.0000 C   0  0  0  0  0  0  0  0  0  0  0  0
   -2.5960   -0.7650    0.0000 C   0  0  0  0  0  0  0  0  0  0  0  0
   -2.2140    0.7030    0.0000 C   0  0  0  0  0  0  0  0  0  0  0  0
   -1.6800    0.1660    0.0000 C   0  0  1  0  0  0  0  0  0  0  0  0
   -1.8650   -0.5700    0.0000 C   0  0  2  0  0  0  0  0  0  0  0  0
   -1.3340   -1.0910    0.0000 C   0  0  2  0  0  0  0  0  0  0  0  0
   -0.6020   -0.8930    0.0000 N   0  0  0  0  0  0  0  0  0  0  0  0
   -0.4120   -0.1650    0.0000 C   0  0  0  0  0  0  0  0  0  0  0  0
   -0.9510    0.3690    0.0000 C   0  0  0  0  0  0  0  0  0  0  0  0
   -1.5210   -1.8230    0.0000 C   0  0  0  0  0  0  0  0  0  0  0  0
   -2.2530   -2.0270    0.0000 N   0  0  0  0  0  0  0  0  0  0  0  0
   -0.9830   -2.3530    0.0000 O   0  0  0  0  0  0  0  0  0  0  0  0
   -0.0640   -1.4220    0.0000 S   0  0  0  0  0  0  0  0  0  0  0  0
    0.6620   -1.2160    0.0000 C   0  0  0  0  0  0  0  0  0  0  0  0
   -0.7960   -1.6220    0.0000 O   0  0  0  0  0  0  0  0  0  0  0  0
    0.1330   -2.1450    0.0000 O   0  0  0  0  0  0  0  0  0  0  0  0
    1.2030   -1.7410    0.0000 C   0  0  0  0  0  0  0  0  0  0  0  0
    1.9290   -1.5400    0.0000 C   0  0  0  0  0  0  0  0  0  0  0  0
    2.1120   -0.7980    0.0000 C   0  0  0  0  0  0  0  0  0  0  0  0
    1.5640   -0.2780    0.0000 C   0  0  0  0  0  0  0  0  0  0  0  0
    0.8450   -0.4870    0.0000 C   0  0  0  0  0  0  0  0  0  0  0  0
    2.8420   -0.5900    0.0000 C   0  0  0  0  0  0  0  0  0  0  0  0
    3.3860   -1.1250    0.0000 C   0  0  0  0  0  0  0  0  0  0  0  0
    4.1120   -0.9130    0.0000 C   0  0  0  0  0  0  0  0  0  0  0  0
    4.2990   -0.1750    0.0000 C   0  0  0  0  0  0  0  0  0  0  0  0
    3.7450    0.3490    0.0000 C   0  0  0  0  0  0  0  0  0  0  0  0
    3.0220    0.1350    0.0000 C   0  0  0  0  0  0  0  0  0  0  0  0
    5.0200    0.0340    0.0000 Cl  0  0  0  0  0  0  0  0  0  0  0  0
   -2.4400   -2.7570    0.0000 O   0  0  0  0  0  0  0  0  0  0  0  0
   -2.1200   -1.5370    0.0000 H   0  0  0  0  0  0  0  0  0  0  0  0
   -1.4250    1.1330    0.0000 H   0  0  0  0  0  0  0  0  0  0  0  0
  8 14  1  0  0  0  0
  2  3  1  0  0  0  0
 14 15  1  0  0  0  0
  3  6  1  0  0  0  0
 14 16  2  0  0  0  0
  5  4  1  0  0  0  0
 14 17  2  0  0  0  0
  5 10  1  0  0  0  0
 15 18  2  0  0  0  0
  6  7  1  0  0  0  0
 18 19  1  0  0  0  0
  7  8  1  0  0  0  0
 19 20  2  0  0  0  0
  8  9  1  0  0  0  0
 20 21  1  0  0  0  0
  9 10  1  0  0  0  0
 21 22  2  0  0  0  0
 22 15  1  0  0  0  0
  5  6  1  0  0  0  0
 20 23  1  0  0  0  0
  7 11  1  6  0  0  0
 23 24  2  0  0  0  0
 24 25  1  0  0  0  0
  1  2  1  0  0  0  0
 25 26  2  0  0  0  0
 11 12  1  0  0  0  0
 26 27  1  0  0  0  0
 11 13  2  0  0  0  0
 27 28  2  0  0  0  0
 28 23  1  0  0  0  0
  1  4  1  0  0  0  0
 26 29  1  0  0  0  0
 12 30  1  0  0  0  0
  6 31  1  1  0  0  0
  5 32  1  1  0  0  0
M  END
>  <ID_NEW>
CPDMM2203

>  <pIC50>
6.654457034879278

$$$$

  SciTegic12180812532D

 32 35  0  0  0  0            999 V2000
  -10.1238   -6.2396    0.0000 C   0  0
  -10.1160   -3.8125    0.0000 O   0  0
  -11.0016   -5.0232    0.0000 C   0  0
   -8.6909   -4.2806    0.0000 C   0  0
   -8.6957   -5.7806    0.0000 C   0  0
   -7.3991   -6.5348    0.0000 C   0  0
   -6.0977   -5.7890    0.0000 N   0  0
   -6.0928   -4.2890    0.0000 C   0  0
   -7.3895   -3.5348    0.0000 C   0  0
   -7.4039   -8.0348    0.0000 C   0  0
   -6.1073   -8.7890    0.0000 O   0  0
   -8.7054   -8.7806    0.0000 O   0  0
   -2.2893   -5.8788    0.0000 C   0  0
   -3.7370   -5.4859    0.0000 C   0  0
   -4.1205   -4.0358    0.0000 C   0  0
   -3.0565   -2.9785    0.0000 C   0  0
   -1.6088   -3.3714    0.0000 C   0  0
   -1.2253   -4.8216    0.0000 C   0  0
   -4.8010   -6.5432    0.0000 S   0  0
   -5.6654   -7.7691    0.0000 O   0  0
   -3.6551   -7.5110    0.0000 O   0  0
   -0.5448   -2.3142    0.0000 O   0  0
    0.9028   -2.7071    0.0000 C   0  0
    1.9669   -1.6498    0.0000 C   0  0
    3.4145   -2.0427    0.0000 C   0  0
    3.7981   -3.4928    0.0000 C   0  0
    2.7341   -4.5501    0.0000 C   0  0
    1.2864   -4.1572    0.0000 C   0  0
    5.2458   -3.8857    0.0000 S   0  0
    5.2409   -5.3857    0.0000 C   0  0
    6.7396   -4.0213    0.0000 O   0  0
    5.5110   -2.4094    0.0000 O   0  0
  6 10  1  0
 10 11  1  0
 10 12  2  0
  1  5  1  0
  4  2  1  0
  2  3  1  0
  3  1  1  0
  4  9  1  0
  5  6  1  0
  6  7  1  0
  7  8  1  0
  8  9  1  0
  4  5  1  0
 17 22  1  0
 14 15  1  0
 22 23  1  0
 17 18  2  0
 23 24  2  0
 18 13  1  0
 24 25  1  0
 13 14  2  0
 25 26  2  0
 14 19  1  0
 26 27  1  0
 15 16  2  0
 27 28  2  0
 28 23  1  0
 26 29  1  0
 19 20  2  0
 29 30  1  0
 19 21  2  0
 29 31  2  0
 16 17  1  0
 29 32  2  0
  7 19  1  0
M  END
>  <ID_NEW>
CPDMM2204

>  <pIC50>
6.649736471425593

$$$$

  -MTS-   10172316422D 0   0.00000     0.00000     0

 28 31  0  0  1  0  0  0  0  0999 V2000
   -5.7060    2.6540    0.0000 C   0  0  0  0  0  0  0  0  0  0  0  0
   -5.7070    1.9140    0.0000 C   0  0  0  0  0  0  0  0  0  0  0  0
   -5.0710    1.5470    0.0000 C   0  0  0  0  0  0  0  0  0  0  0  0
   -5.0730    3.0210    0.0000 C   0  0  0  0  0  0  0  0  0  0  0  0
   -4.4370    2.6580    0.0000 C   0  0  0  0  0  0  0  0  0  0  0  0
   -4.4330    1.9120    0.0000 C   0  0  0  0  0  0  0  0  0  0  0  0
   -3.7890    1.5470    0.0000 C   0  0  2  0  0  0  0  0  0  0  0  0
   -3.1520    1.9180    0.0000 N   0  0  0  0  0  0  0  0  0  0  0  0
   -3.1550    2.6600    0.0000 C   0  0  0  0  0  0  0  0  0  0  0  0
   -3.8000    3.0300    0.0000 C   0  0  0  0  0  0  0  0  0  0  0  0
   -3.7910    0.8090    0.0000 C   0  0  0  0  0  0  0  0  0  0  0  0
   -4.4240    0.4370    0.0000 N   0  0  0  0  0  0  0  0  0  0  0  0
   -3.1530    0.4410    0.0000 O   0  0  0  0  0  0  0  0  0  0  0  0
   -2.5170    1.5540    0.0000 S   0  0  0  0  0  0  0  0  0  0  0  0
   -4.4180   -0.2970    0.0000 O   0  0  0  0  0  0  0  0  0  0  0  0
   -1.9010    1.7290    0.0000 C   0  0  0  0  0  0  0  0  0  0  0  0
   -1.3080    1.3130    0.0000 C   0  0  0  0  0  0  0  0  0  0  0  0
   -0.6530    1.6210    0.0000 C   0  0  0  0  0  0  0  0  0  0  0  0
   -0.5920    2.3430    0.0000 C   0  0  0  0  0  0  0  0  0  0  0  0
   -1.1910    2.7560    0.0000 C   0  0  0  0  0  0  0  0  0  0  0  0
   -1.8430    2.4460    0.0000 C   0  0  0  0  0  0  0  0  0  0  0  0
    0.0630    2.6520    0.0000 N   0  0  0  0  0  0  0  0  0  0  0  0
    0.6970    2.3000    0.0000 C   0  0  0  0  0  0  0  0  0  0  0  0
    1.2240    2.7970    0.0000 C   0  0  0  0  0  0  0  0  0  0  0  0
    0.9150    3.4520    0.0000 C   0  0  0  0  0  0  0  0  0  0  0  0
    0.1970    3.3600    0.0000 N   0  0  0  0  0  0  0  0  0  0  0  0
   -3.1080    0.9750    0.0000 O   0  0  0  0  0  0  0  0  0  0  0  0
   -2.1120    0.8460    0.0000 O   0  0  0  0  0  0  0  0  0  0  0  0
 25 26  2  0  0  0  0
 26 22  1  0  0  0  0
 14 16  1  0  0  0  0
  2  3  1  0  0  0  0
 14 27  2  0  0  0  0
 11 12  1  0  0  0  0
 14 28  2  0  0  0  0
 11 13  2  0  0  0  0
  3  6  2  0  0  0  0
 12 15  1  0  0  0  0
  8 14  1  0  0  0  0
  1  2  2  0  0  0  0
  5  4  2  0  0  0  0
  4  1  1  0  0  0  0
  5 10  1  0  0  0  0
  6  7  1  0  0  0  0
  7  8  1  0  0  0  0
  8  9  1  0  0  0  0
  9 10  1  0  0  0  0
 16 17  2  0  0  0  0
 17 18  1  0  0  0  0
 18 19  2  0  0  0  0
 19 20  1  0  0  0  0
 20 21  2  0  0  0  0
 21 16  1  0  0  0  0
 19 22  1  0  0  0  0
 22 23  1  0  0  0  0
  5  6  1  0  0  0  0
  7 11  1  6  0  0  0
 23 24  2  0  0  0  0
 24 25  1  0  0  0  0
M  END
>  <ID_NEW>
CPDMM2205

>  <pIC50>
6.638272163982406

$$$$

  SciTegic12180812572D

 30 33  0  0  0  0            999 V2000
   -2.2667    0.5000    0.0000 S   0  0
   -1.5522    0.9125    0.0000 C   0  0
   -2.8542   -0.0833    0.0000 O   0  0
   -1.6833   -0.0833    0.0000 O   0  0
   -0.8392    0.4953    0.0000 C   0  0
   -0.1252    0.9072    0.0000 C   0  0
   -0.1247    1.7330    0.0000 C   0  0
   -0.8442    2.1454    0.0000 C   0  0
   -1.5553    1.7312    0.0000 C   0  0
    0.5892    2.1465    0.0000 C   0  0
    1.2999    1.7323    0.0000 C   0  0
    2.0133    2.1450    0.0000 C   0  0
    2.0127    2.9709    0.0000 C   0  0
    1.2926    3.3823    0.0000 C   0  0
    0.5821    2.9672    0.0000 C   0  0
    2.7262    3.3829    0.0000 C   0  0
    3.4395    3.7973    0.0000 N   0  0
   -5.8333    1.7333    0.0000 C   0  0
   -5.8333    0.9083    0.0000 C   0  0
   -5.1213    0.5000    0.0000 C   0  0
   -5.1213    2.1500    0.0000 C   0  0
   -4.4093    1.7333    0.0000 C   0  0
   -4.4082    0.9083    0.0000 C   0  0
   -3.6972    0.4990    0.0000 C   0  0
   -2.9826    0.9102    0.0000 N   0  0
   -2.9837    1.7352    0.0000 C   0  0
   -3.6993    2.1490    0.0000 C   0  0
   -3.6973   -0.3260    0.0000 C   0  0
   -4.4110   -0.7398    0.0000 O   0  0
   -2.9820   -0.7399    0.0000 O   0  0
  1  2  1  0
  1  3  2  0
  1  4  2  0
  2  5  2  0
  5  6  1  0
  6  7  2  0
  7  8  1  0
  8  9  2  0
  9  2  1  0
  7 10  1  0
 10 11  2  0
 11 12  1  0
 12 13  2  0
 13 14  1  0
 14 15  2  0
 15 10  1  0
 16 17  3  0
 13 16  1  0
 18 19  1  0
 18 21  1  0
 19 20  1  0
 20 23  1  0
 22 21  1  0
 22 23  1  0
 22 27  1  0
 23 24  1  0
 24 25  1  0
 25 26  1  0
 26 27  1  0
 24 28  1  0
 28 29  1  0
 28 30  2  0
 25  1  1  0
M  END
>  <ID_NEW>
CPDMM2206

>  <pIC50>
6.607915358671565

$$$$

  -MTS-   10172316422D 0   0.00000     0.00000     0

 36 39  0  0  1  0  0  0  0  0999 V2000
   -5.8310    2.5460    0.0000 C   0  0  0  0  0  0  0  0  0  0  0  0
   -5.8320    1.7180    0.0000 C   0  0  0  0  0  0  0  0  0  0  0  0
   -5.1170    1.3060    0.0000 C   0  0  0  0  0  0  0  0  0  0  0  0
   -5.1190    2.9590    0.0000 C   0  0  0  0  0  0  0  0  0  0  0  0
   -4.4030    2.5490    0.0000 C   0  0  0  0  0  0  0  0  0  0  0  0
   -4.4000    1.7160    0.0000 C   0  0  0  0  0  0  0  0  0  0  0  0
   -3.6810    1.3050    0.0000 C   0  0  0  0  0  0  0  0  0  0  0  0
   -2.9600    1.7220    0.0000 N   0  0  0  0  0  0  0  0  0  0  0  0
   -2.9640    2.5550    0.0000 C   0  0  2  0  0  0  0  0  0  0  0  0
   -3.6880    2.9710    0.0000 C   0  0  0  0  0  0  0  0  0  0  0  0
   -2.2510    2.9700    0.0000 C   0  0  0  0  0  0  0  0  0  0  0  0
   -1.5340    2.5620    0.0000 N   0  0  0  0  0  0  0  0  0  0  0  0
   -2.2530    3.7970    0.0000 O   0  0  0  0  0  0  0  0  0  0  0  0
   -2.2450    1.3120    0.0000 S   0  0  0  0  0  0  0  0  0  0  0  0
   -2.9620    0.9040    0.0000 O   0  0  0  0  0  0  0  0  0  0  0  0
   -2.0330    0.5170    0.0000 O   0  0  0  0  0  0  0  0  0  0  0  0
   -1.4210    1.3120    0.0000 C   0  0  0  0  0  0  0  0  0  0  0  0
   -1.0100    0.5970    0.0000 C   0  0  0  0  0  0  0  0  0  0  0  0
   -0.1870    0.5970    0.0000 C   0  0  0  0  0  0  0  0  0  0  0  0
    0.2250    1.3120    0.0000 C   0  0  0  0  0  0  0  0  0  0  0  0
   -0.1920    2.0270    0.0000 C   0  0  0  0  0  0  0  0  0  0  0  0
   -1.0140    2.0230    0.0000 C   0  0  0  0  0  0  0  0  0  0  0  0
    1.0500    1.3140    0.0000 N   0  0  0  0  0  0  0  0  0  0  0  0
    1.4630    0.5970    0.0000 C   0  0  0  0  0  0  0  0  0  0  0  0
    2.2850    0.5970    0.0000 C   0  0  0  0  0  0  0  0  0  0  0  0
    2.7000    1.3100    0.0000 N   0  0  0  0  0  0  0  0  0  0  0  0
    2.2870    2.0260    0.0000 C   0  0  0  0  0  0  0  0  0  0  0  0
    1.4590    2.0280    0.0000 C   0  0  0  0  0  0  0  0  0  0  0  0
   -0.8250    2.9790    0.0000 O   0  0  0  0  0  0  0  0  0  0  0  0
    3.5250    1.3090    0.0000 C   0  0  0  0  0  0  0  0  0  0  0  0
    3.9360    0.5940    0.0000 O   0  0  0  0  0  0  0  0  0  0  0  0
    3.9380    2.0230    0.0000 O   0  0  0  0  0  0  0  0  0  0  0  0
    4.6500    1.6120    0.0000 C   0  0  0  0  0  0  0  0  0  0  0  0
    5.3620    2.0290    0.0000 C   0  0  0  0  0  0  0  0  0  0  0  0
    6.0750    2.4460    0.0000 C   0  0  0  0  0  0  0  0  0  0  0  0
    6.7870    2.8620    0.0000 C   0  0  0  0  0  0  0  0  0  0  0  0
  7  8  1  0  0  0  0
 20 23  1  0  0  0  0
 23 24  1  0  0  0  0
  8  9  1  0  0  0  0
  9 10  1  0  0  0  0
  9 11  1  6  0  0  0
  5  4  2  0  0  0  0
 23 28  1  0  0  0  0
 24 25  1  0  0  0  0
 25 26  1  0  0  0  0
 26 27  1  0  0  0  0
 27 28  1  0  0  0  0
  4  1  1  0  0  0  0
 12 29  1  0  0  0  0
 26 30  1  0  0  0  0
 30 31  2  0  0  0  0
 30 32  1  0  0  0  0
 32 33  1  0  0  0  0
 33 34  1  0  0  0  0
 34 35  3  0  0  0  0
 35 36  1  0  0  0  0
 11 12  1  0  0  0  0
 11 13  2  0  0  0  0
  5  6  1  0  0  0  0
  8 14  1  0  0  0  0
 14 15  2  0  0  0  0
 14 16  2  0  0  0  0
  1  2  2  0  0  0  0
 14 17  1  0  0  0  0
 17 18  2  0  0  0  0
  2  3  1  0  0  0  0
 18 19  1  0  0  0  0
  3  6  2  0  0  0  0
 19 20  2  0  0  0  0
  5 10  1  0  0  0  0
 20 21  1  0  0  0  0
  6  7  1  0  0  0  0
 21 22  2  0  0  0  0
 22 17  1  0  0  0  0
M  END
>  <ID_NEW>
CPDMM2207

>  <pIC50>
6.602059991327962

$$$$

  -MTS-   10172316422D 0   0.00000     0.00000     0

 32 35  0  0  1  0  0  0  0  0999 V2000
   -1.2460    2.6890    0.0000 C   0  0  0  0  0  0  0  0  0  0  0  0
   -0.8120    2.1920    0.0000 C   0  0  0  0  0  0  0  0  0  0  0  0
   -0.1660    2.3190    0.0000 C   0  0  0  0  0  0  0  0  0  0  0  0
    0.0460    2.9470    0.0000 C   0  0  0  0  0  0  0  0  0  0  0  0
   -0.3910    3.4430    0.0000 C   0  0  0  0  0  0  0  0  0  0  0  0
   -1.0390    3.3130    0.0000 C   0  0  0  0  0  0  0  0  0  0  0  0
    0.6920    3.0760    0.0000 C   0  0  0  0  0  0  0  0  0  0  0  0
    1.1290    2.5780    0.0000 C   0  0  0  0  0  0  0  0  0  0  0  0
    1.7750    2.7070    0.0000 C   0  0  0  0  0  0  0  0  0  0  0  0
    1.9850    3.3310    0.0000 C   0  0  0  0  0  0  0  0  0  0  0  0
    1.5480    3.8310    0.0000 C   0  0  0  0  0  0  0  0  0  0  0  0
    0.9000    3.6990    0.0000 C   0  0  0  0  0  0  0  0  0  0  0  0
    2.6310    3.4650    0.0000 Cl  0  0  0  0  0  0  0  0  0  0  0  0
   -5.8310    3.3460    0.0000 C   0  0  0  0  0  0  0  0  0  0  0  0
   -5.8320    2.6810    0.0000 C   0  0  0  0  0  0  0  0  0  0  0  0
   -5.2590    2.3510    0.0000 C   0  0  0  0  0  0  0  0  0  0  0  0
   -5.2600    3.6750    0.0000 C   0  0  0  0  0  0  0  0  0  0  0  0
   -4.6870    3.3490    0.0000 C   0  0  0  0  0  0  0  0  0  0  0  0
   -4.6830    2.6830    0.0000 C   0  0  0  0  0  0  0  0  0  0  0  0
   -4.1100    2.3510    0.0000 C   0  0  2  0  0  0  0  0  0  0  0  0
   -3.5310    2.6850    0.0000 N   0  0  0  0  0  0  0  0  0  0  0  0
   -3.5350    3.3510    0.0000 C   0  0  0  0  0  0  0  0  0  0  0  0
   -4.1130    3.6840    0.0000 C   0  0  0  0  0  0  0  0  0  0  0  0
   -4.1080    1.6930    0.0000 C   0  0  0  0  0  0  0  0  0  0  0  0
   -4.6780    1.3580    0.0000 N   0  0  0  0  0  0  0  0  0  0  0  0
   -3.5320    1.3620    0.0000 O   0  0  0  0  0  0  0  0  0  0  0  0
   -2.9610    2.3580    0.0000 S   0  0  0  0  0  0  0  0  0  0  0  0
   -2.3900    2.6890    0.0000 C   0  0  0  0  0  0  0  0  0  0  0  0
   -1.8160    2.3610    0.0000 C   0  0  0  0  0  0  0  0  0  0  0  0
   -3.5330    2.0330    0.0000 O   0  0  0  0  0  0  0  0  0  0  0  0
   -2.6330    1.7870    0.0000 O   0  0  0  0  0  0  0  0  0  0  0  0
   -4.6830    0.6960    0.0000 O   0  0  0  0  0  0  0  0  0  0  0  0
  1  2  2  0  0  0  0
  2  3  1  0  0  0  0
  3  4  2  0  0  0  0
  4  5  1  0  0  0  0
  5  6  2  0  0  0  0
  6  1  1  0  0  0  0
  4  7  1  0  0  0  0
  7  8  2  0  0  0  0
  8  9  1  0  0  0  0
  9 10  2  0  0  0  0
 10 11  1  0  0  0  0
 11 12  2  0  0  0  0
 12  7  1  0  0  0  0
 10 13  1  0  0  0  0
 14 15  2  0  0  0  0
 15 16  1  0  0  0  0
 16 19  2  0  0  0  0
 18 17  2  0  0  0  0
 17 14  1  0  0  0  0
 18 19  1  0  0  0  0
 18 23  1  0  0  0  0
 19 20  1  0  0  0  0
 20 21  1  0  0  0  0
 21 22  1  0  0  0  0
 22 23  1  0  0  0  0
 20 24  1  6  0  0  0
 24 25  1  0  0  0  0
 24 26  2  0  0  0  0
 21 27  1  0  0  0  0
 27 28  1  0  0  0  0
 28 29  1  0  0  0  0
 29  1  1  0  0  0  0
 27 30  2  0  0  0  0
 27 31  2  0  0  0  0
 25 32  1  0  0  0  0
M  END
>  <ID_NEW>
CPDMM2208

>  <pIC50>
6.602059991327962

$$$$

  -MTS-   10172316422D 0   0.00000     0.00000     0

 32 35  0  0  1  0  0  0  0  0999 V2000
   -2.4350    1.5260    0.0000 S   0  0  0  0  0  0  0  0  0  0  0  0
   -1.7200    1.9390    0.0000 C   0  0  0  0  0  0  0  0  0  0  0  0
   -1.0070    1.5210    0.0000 C   0  0  0  0  0  0  0  0  0  0  0  0
   -0.2930    1.9330    0.0000 C   0  0  0  0  0  0  0  0  0  0  0  0
   -0.2930    2.7590    0.0000 C   0  0  0  0  0  0  0  0  0  0  0  0
   -1.0120    3.1720    0.0000 C   0  0  0  0  0  0  0  0  0  0  0  0
   -1.7230    2.7570    0.0000 C   0  0  0  0  0  0  0  0  0  0  0  0
    0.4210    3.1730    0.0000 O   0  0  0  0  0  0  0  0  0  0  0  0
    1.1360    2.7610    0.0000 C   0  0  0  0  0  0  0  0  0  0  0  0
    1.1340    1.9380    0.0000 C   0  0  0  0  0  0  0  0  0  0  0  0
    1.8490    1.5260    0.0000 C   0  0  0  0  0  0  0  0  0  0  0  0
    2.5640    1.9400    0.0000 C   0  0  0  0  0  0  0  0  0  0  0  0
    2.5600    2.7690    0.0000 C   0  0  0  0  0  0  0  0  0  0  0  0
    1.8450    3.1770    0.0000 C   0  0  0  0  0  0  0  0  0  0  0  0
    3.2790    1.5290    0.0000 F   0  0  0  0  0  0  0  0  0  0  0  0
   -3.0220    0.9430    0.0000 O   0  0  0  0  0  0  0  0  0  0  0  0
   -2.0260    0.8140    0.0000 O   0  0  0  0  0  0  0  0  0  0  0  0
   -5.8310    3.3170    0.0000 C   0  0  0  0  0  0  0  0  0  0  0  0
   -5.8320    2.4890    0.0000 C   0  0  0  0  0  0  0  0  0  0  0  0
   -5.1170    2.0760    0.0000 C   0  0  0  0  0  0  0  0  0  0  0  0
   -5.1190    3.7290    0.0000 C   0  0  0  0  0  0  0  0  0  0  0  0
   -4.4030    3.3200    0.0000 C   0  0  0  0  0  0  0  0  0  0  0  0
   -3.7610    3.8310    0.0000 C   0  0  0  0  0  0  0  0  0  0  0  0
   -2.9590    3.6510    0.0000 C   0  0  0  0  0  0  0  0  0  0  0  0
   -2.5990    2.9160    0.0000 C   0  0  0  0  0  0  0  0  0  0  0  0
   -4.4000    2.4920    0.0000 C   0  0  0  0  0  0  0  0  0  0  0  0
   -2.9530    2.1680    0.0000 N   0  0  0  0  0  0  0  0  0  0  0  0
   -3.7530    1.9820    0.0000 C   0  0  2  0  0  0  0  0  0  0  0  0
   -3.9320    1.1770    0.0000 C   0  0  0  0  0  0  0  0  0  0  0  0
   -4.7190    0.9260    0.0000 N   0  0  0  0  0  0  0  0  0  0  0  0
   -3.3240    0.6150    0.0000 O   0  0  0  0  0  0  0  0  0  0  0  0
   -4.9370    0.1330    0.0000 O   0  0  0  0  0  0  0  0  0  0  0  0
  1  2  1  0  0  0  0
  2  3  2  0  0  0  0
  3  4  1  0  0  0  0
  4  5  2  0  0  0  0
  5  6  1  0  0  0  0
  6  7  2  0  0  0  0
  7  2  1  0  0  0  0
  5  8  1  0  0  0  0
  8  9  1  0  0  0  0
  9 10  2  0  0  0  0
 10 11  1  0  0  0  0
 11 12  2  0  0  0  0
 12 13  1  0  0  0  0
 13 14  2  0  0  0  0
 14  9  1  0  0  0  0
 12 15  1  0  0  0  0
  1 16  2  0  0  0  0
  1 17  2  0  0  0  0
 18 19  2  0  0  0  0
 19 20  1  0  0  0  0
 20 26  2  0  0  0  0
 22 21  2  0  0  0  0
 21 18  1  0  0  0  0
 22 23  1  0  0  0  0
 23 24  1  0  0  0  0
 24 25  1  0  0  0  0
 22 26  1  0  0  0  0
 25 27  1  0  0  0  0
 26 28  1  0  0  0  0
 27 28  1  0  0  0  0
 28 29  1  6  0  0  0
 29 30  1  0  0  0  0
 29 31  2  0  0  0  0
 27  1  1  0  0  0  0
 30 32  1  0  0  0  0
M  END
>  <ID_NEW>
CPDMM2209

>  <pIC50>
6.557130011617991

$$$$

  -MTS-   10172316422D 0   0.00000     0.00000     0

 37 40  0  0  1  0  0  0  0  0999 V2000
    0.0610   -6.0990    0.0000 C   0  0  1  0  0  0  0  0  0  0  0  0
    0.5480   -5.8190    0.0000 N   0  0  0  0  0  0  0  0  0  0  0  0
    0.5440   -5.2610    0.0000 C   0  0  0  0  0  0  0  0  0  0  0  0
    0.0540   -4.9830    0.0000 C   0  0  0  0  0  0  0  0  0  0  0  0
    0.0630   -6.6570    0.0000 C   0  0  0  0  0  0  0  0  0  0  0  0
   -0.4150   -6.9300    0.0000 N   0  0  0  0  0  0  0  0  0  0  0  0
    0.5470   -6.9300    0.0000 O   0  0  0  0  0  0  0  0  0  0  0  0
    1.5110   -6.3750    0.0000 C   0  0  0  0  0  0  0  0  0  0  0  0
    1.5100   -6.9270    0.0000 C   0  0  0  0  0  0  0  0  0  0  0  0
    1.9870   -7.2070    0.0000 C   0  0  0  0  0  0  0  0  0  0  0  0
    2.4700   -6.9270    0.0000 C   0  0  0  0  0  0  0  0  0  0  0  0
    2.4680   -6.3710    0.0000 C   0  0  0  0  0  0  0  0  0  0  0  0
    1.9850   -6.0960    0.0000 C   0  0  0  0  0  0  0  0  0  0  0  0
    2.9560   -7.2050    0.0000 C   0  0  0  0  0  0  0  0  0  0  0  0
    2.9490   -7.7550    0.0000 C   0  0  0  0  0  0  0  0  0  0  0  0
    3.4340   -8.0330    0.0000 C   0  0  0  0  0  0  0  0  0  0  0  0
    3.9070   -7.7570    0.0000 C   0  0  0  0  0  0  0  0  0  0  0  0
    3.9070   -7.2030    0.0000 C   0  0  0  0  0  0  0  0  0  0  0  0
    3.4250   -6.9240    0.0000 C   0  0  0  0  0  0  0  0  0  0  0  0
    1.0300   -6.0960    0.0000 S   0  0  0  0  0  0  0  0  0  0  0  0
    1.4210   -5.7000    0.0000 O   0  0  0  0  0  0  0  0  0  0  0  0
    0.6330   -6.4870    0.0000 O   0  0  0  0  0  0  0  0  0  0  0  0
   -0.4210   -5.8250    0.0000 C   0  0  2  0  0  0  0  0  0  0  0  0
   -0.4280   -5.2630    0.0000 C   0  0  1  0  0  0  0  0  0  0  0  0
   -0.9120   -4.9860    0.0000 C   0  0  0  0  0  0  0  0  0  0  0  0
   -1.3950   -5.2630    0.0000 C   0  0  0  0  0  0  0  0  0  0  0  0
   -1.3920   -5.8260    0.0000 C   0  0  0  0  0  0  0  0  0  0  0  0
   -0.9070   -6.1110    0.0000 C   0  0  0  0  0  0  0  0  0  0  0  0
   -0.4100   -7.4880    0.0000 O   0  0  0  0  0  0  0  0  0  0  0  0
    4.3820   -8.0300    0.0000 O   0  0  0  0  0  0  0  0  0  0  0  0
    4.8560   -7.7550    0.0000 C   0  0  0  0  0  0  0  0  0  0  0  0
    5.3310   -8.0280    0.0000 C   0  0  0  0  0  0  0  0  0  0  0  0
    5.8050   -7.7530    0.0000 F   0  0  0  0  0  0  0  0  0  0  0  0
    5.3320   -8.5760    0.0000 F   0  0  0  0  0  0  0  0  0  0  0  0
    5.8600   -8.1680    0.0000 F   0  0  0  0  0  0  0  0  0  0  0  0
   -0.4320   -4.2630    0.0000 H   0  0  0  0  0  0  0  0  0  0  0  0
   -0.4140   -6.8250    0.0000 H   0  0  0  0  0  0  0  0  0  0  0  0
 24  4  1  0  0  0  0
 23  1  1  0  0  0  0
  1  2  1  0  0  0  0
  2  3  1  0  0  0  0
  3  4  1  0  0  0  0
  1  5  1  1  0  0  0
  5  6  1  0  0  0  0
  5  7  2  0  0  0  0
  2 20  1  0  0  0  0
  8  9  2  0  0  0  0
  9 10  1  0  0  0  0
 10 11  2  0  0  0  0
 11 12  1  0  0  0  0
 12 13  2  0  0  0  0
 13  8  1  0  0  0  0
 11 14  1  0  0  0  0
 14 15  2  0  0  0  0
 15 16  1  0  0  0  0
 16 17  2  0  0  0  0
 17 18  1  0  0  0  0
 18 19  2  0  0  0  0
 19 14  1  0  0  0  0
  8 20  1  0  0  0  0
 20 21  2  0  0  0  0
 20 22  2  0  0  0  0
 23 24  1  0  0  0  0
 23 28  1  0  0  0  0
 24 25  1  0  0  0  0
 25 26  1  0  0  0  0
 26 27  1  0  0  0  0
 27 28  1  0  0  0  0
  6 29  1  0  0  0  0
 17 30  1  0  0  0  0
 30 31  1  0  0  0  0
 31 32  1  0  0  0  0
 32 33  1  0  0  0  0
 32 34  1  0  0  0  0
 32 35  1  0  0  0  0
 24 36  1  6  0  0  0
 23 37  1  6  0  0  0
M  END
>  <ID_NEW>
CPDMM2210

>  <pIC50>
6.554486089552685

$$$$

  -MTS-   10172316422D 0   0.00000     0.00000     0

 39 42  0  0  1  0  0  0  0  0999 V2000
   -3.0970   -1.1330    0.0000 C   0  0  0  0  0  0  0  0  0  0  0  0
   -3.0980   -1.6480    0.0000 C   0  0  0  0  0  0  0  0  0  0  0  0
   -2.6500   -1.9070    0.0000 C   0  0  0  0  0  0  0  0  0  0  0  0
   -2.2050   -1.6480    0.0000 C   0  0  0  0  0  0  0  0  0  0  0  0
   -2.6520   -0.8790    0.0000 C   0  0  0  0  0  0  0  0  0  0  0  0
   -2.2040   -1.1320    0.0000 C   0  0  0  0  0  0  0  0  0  0  0  0
   -1.7590   -0.8770    0.0000 C   0  0  0  0  0  0  0  0  0  0  0  0
   -1.7590   -0.3620    0.0000 N   0  0  0  0  0  0  0  0  0  0  0  0
   -2.2110   -0.1040    0.0000 C   0  0  2  0  0  0  0  0  0  0  0  0
   -2.6590   -0.3610    0.0000 C   0  0  0  0  0  0  0  0  0  0  0  0
   -2.2090    0.4130    0.0000 C   0  0  0  0  0  0  0  0  0  0  0  0
   -1.7700    0.6680    0.0000 N   0  0  0  0  0  0  0  0  0  0  0  0
   -2.6530    0.6700    0.0000 O   0  0  0  0  0  0  0  0  0  0  0  0
   -1.2670   -0.2250    0.0000 S   0  0  0  0  0  0  0  0  0  0  0  0
   -1.2670    0.2870    0.0000 O   0  0  0  0  0  0  0  0  0  0  0  0
   -1.2670   -0.7370    0.0000 O   0  0  0  0  0  0  0  0  0  0  0  0
   -0.7750   -0.0900    0.0000 C   0  0  0  0  0  0  0  0  0  0  0  0
   -0.4050   -0.4480    0.0000 C   0  0  0  0  0  0  0  0  0  0  0  0
    0.0860   -0.3130    0.0000 C   0  0  0  0  0  0  0  0  0  0  0  0
    0.2200    0.1850    0.0000 C   0  0  0  0  0  0  0  0  0  0  0  0
   -0.1420    0.5500    0.0000 C   0  0  0  0  0  0  0  0  0  0  0  0
   -0.6430    0.4080    0.0000 C   0  0  0  0  0  0  0  0  0  0  0  0
    0.6620    0.4460    0.0000 C   0  0  0  0  0  0  0  0  0  0  0  0
    1.1100    0.1860    0.0000 C   0  0  0  0  0  0  0  0  0  0  0  0
    1.5500    0.4560    0.0000 C   0  0  0  0  0  0  0  0  0  0  0  0
   -1.7700    1.1750    0.0000 O   0  0  0  0  0  0  0  0  0  0  0  0
    2.0010    0.2070    0.0000 C   0  0  0  0  0  0  0  0  0  0  0  0
    2.4450    0.4720    0.0000 N   0  0  0  0  0  0  0  0  0  0  0  0
    2.8960    0.2190    0.0000 C   0  0  0  0  0  0  0  0  0  0  0  0
    3.3340    0.4860    0.0000 C   0  0  0  0  0  0  0  0  0  0  0  0
    3.3250    1.0010    0.0000 N   0  0  0  0  0  0  0  0  0  0  0  0
    2.8780    1.2510    0.0000 C   0  0  0  0  0  0  0  0  0  0  0  0
    2.4310    0.9830    0.0000 C   0  0  0  0  0  0  0  0  0  0  0  0
    3.7700    1.2640    0.0000 C   0  0  0  0  0  0  0  0  0  0  0  0
    4.2210    1.0130    0.0000 C   0  0  0  0  0  0  0  0  0  0  0  0
    3.7600    1.7830    0.0000 O   0  0  0  0  0  0  0  0  0  0  0  0
    4.2260    0.5030    0.0000 F   0  0  0  0  0  0  0  0  0  0  0  0
    4.6610    1.2810    0.0000 F   0  0  0  0  0  0  0  0  0  0  0  0
    3.8610    0.6440    0.0000 F   0  0  0  0  0  0  0  0  0  0  0  0
 11 12  1  0  0  0  0
  2  3  1  0  0  0  0
 11 13  2  0  0  0  0
  1  2  2  0  0  0  0
  8 14  1  0  0  0  0
  3  4  2  0  0  0  0
 14 15  2  0  0  0  0
  4  6  1  0  0  0  0
 14 16  2  0  0  0  0
  5  1  1  0  0  0  0
 14 17  1  0  0  0  0
  5 10  1  0  0  0  0
 17 18  2  0  0  0  0
  6  7  1  0  0  0  0
 18 19  1  0  0  0  0
 12 26  1  0  0  0  0
 25 27  1  0  0  0  0
  7  8  1  0  0  0  0
 27 28  1  0  0  0  0
 28 29  1  0  0  0  0
 19 20  2  0  0  0  0
  8  9  1  0  0  0  0
 20 21  1  0  0  0  0
  9 10  1  0  0  0  0
 21 22  2  0  0  0  0
 28 33  1  0  0  0  0
 29 30  1  0  0  0  0
 30 31  1  0  0  0  0
 31 32  1  0  0  0  0
 32 33  1  0  0  0  0
 22 17  1  0  0  0  0
 31 34  1  0  0  0  0
  5  6  2  0  0  0  0
 34 35  1  0  0  0  0
 20 23  1  0  0  0  0
 34 36  2  0  0  0  0
  9 11  1  6  0  0  0
 35 37  1  0  0  0  0
 23 24  1  0  0  0  0
 35 38  1  0  0  0  0
 24 25  1  0  0  0  0
 35 39  1  0  0  0  0
M  END
>  <ID_NEW>
CPDMM2211

>  <pIC50>
6.5228787452803365

$$$$

  -MTS-   10172316422D 0   0.00000     0.00000     0

 30 33  0  0  1  0  0  0  0  0999 V2000
   -0.2600   -1.4790    0.0000 C   0  0  0  0  0  0  0  0  0  0  0  0
   -0.2610   -2.3020    0.0000 C   0  0  0  0  0  0  0  0  0  0  0  0
    0.4580   -2.7150    0.0000 C   0  0  0  0  0  0  0  0  0  0  0  0
    0.4560   -1.0660    0.0000 C   0  0  0  0  0  0  0  0  0  0  0  0
    1.1670   -1.4750    0.0000 C   0  0  0  0  0  0  0  0  0  0  0  0
    1.1670   -2.3000    0.0000 C   0  0  0  0  0  0  0  0  0  0  0  0
    1.8820   -2.7160    0.0000 C   0  0  0  0  0  0  0  0  0  0  0  0
    2.5980   -2.3030    0.0000 N   0  0  0  0  0  0  0  0  0  0  0  0
    2.5990   -1.4780    0.0000 C   0  0  2  0  0  0  0  0  0  0  0  0
    1.8830   -1.0660    0.0000 C   0  0  0  0  0  0  0  0  0  0  0  0
    3.3200   -1.0630    0.0000 C   0  0  0  0  0  0  0  0  0  0  0  0
    4.0320   -1.4820    0.0000 O   0  0  0  0  0  0  0  0  0  0  0  0
    3.3220   -0.2380    0.0000 O   0  0  0  0  0  0  0  0  0  0  0  0
    3.3180   -2.7220    0.0000 S   0  0  0  0  0  0  0  0  0  0  0  0
    3.7390   -2.0030    0.0000 O   0  0  0  0  0  0  0  0  0  0  0  0
    2.8980   -3.4440    0.0000 O   0  0  0  0  0  0  0  0  0  0  0  0
    4.0400   -3.1430    0.0000 C   0  0  0  0  0  0  0  0  0  0  0  0
    4.7600   -2.7300    0.0000 C   0  0  0  0  0  0  0  0  0  0  0  0
    5.4740   -3.1480    0.0000 C   0  0  0  0  0  0  0  0  0  0  0  0
    5.4630   -3.9760    0.0000 C   0  0  0  0  0  0  0  0  0  0  0  0
    6.1760   -4.3890    0.0000 C   0  0  0  0  0  0  0  0  0  0  0  0
    6.9050   -3.9860    0.0000 C   0  0  0  0  0  0  0  0  0  0  0  0
    6.9110   -3.1600    0.0000 C   0  0  0  0  0  0  0  0  0  0  0  0
    6.1930   -2.7390    0.0000 C   0  0  0  0  0  0  0  0  0  0  0  0
    7.6190   -4.3980    0.0000 C   0  0  0  0  0  0  0  0  0  0  0  0
    7.6180   -5.2260    0.0000 C   0  0  0  0  0  0  0  0  0  0  0  0
    8.3320   -5.6380    0.0000 C   0  0  0  0  0  0  0  0  0  0  0  0
    9.0520   -5.2250    0.0000 C   0  0  0  0  0  0  0  0  0  0  0  0
    9.0530   -4.3960    0.0000 N   0  0  0  0  0  0  0  0  0  0  0  0
    8.3340   -3.9830    0.0000 C   0  0  0  0  0  0  0  0  0  0  0  0
  1  2  2  0  0  0  0
 14 15  2  0  0  0  0
  5  4  2  0  0  0  0
 14 16  2  0  0  0  0
  4  1  1  0  0  0  0
 14 17  1  0  0  0  0
  5 10  1  0  0  0  0
 17 18  1  0  0  0  0
  6  7  1  0  0  0  0
 18 19  1  0  0  0  0
  7  8  1  0  0  0  0
 19 20  2  0  0  0  0
  8  9  1  0  0  0  0
 20 21  1  0  0  0  0
  9 10  1  0  0  0  0
 21 22  2  0  0  0  0
  5  6  1  0  0  0  0
 22 23  1  0  0  0  0
  9 11  1  6  0  0  0
 23 24  2  0  0  0  0
 24 19  1  0  0  0  0
 22 25  1  0  0  0  0
 11 12  1  0  0  0  0
 25 26  2  0  0  0  0
  2  3  1  0  0  0  0
 26 27  1  0  0  0  0
 11 13  2  0  0  0  0
 27 28  2  0  0  0  0
  3  6  2  0  0  0  0
 28 29  1  0  0  0  0
  8 14  1  0  0  0  0
 29 30  2  0  0  0  0
 30 25  1  0  0  0  0
M  END
>  <ID_NEW>
CPDMM2212

>  <pIC50>
6.5228787452803365

$$$$

  -MTS-   10172316422D 0   0.00000     0.00000     0

 24 26  0  0  1  0  0  0  0  0999 V2000
    5.6560   -2.9900    0.0000 N   0  0  0  0  0  0  0  0  0  0  0  0
    5.8500   -3.7120    0.0000 S   0  0  0  0  0  0  0  0  0  0  0  0
    6.0990   -2.3750    0.0000 C   0  0  1  0  0  0  0  0  0  0  0  0
    6.8500   -2.3750    0.0000 C   0  0  0  0  0  0  0  0  0  0  0  0
    4.9370   -2.7580    0.0000 C   0  0  1  0  0  0  0  0  0  0  0  0
    5.6500   -1.7650    0.0000 C   0  0  0  0  0  0  0  0  0  0  0  0
    6.0420   -4.4420    0.0000 C   0  0  0  0  0  0  0  0  0  0  0  0
    4.9330   -2.0040    0.0000 C   0  0  1  0  0  0  0  0  0  0  0  0
    5.1170   -3.9120    0.0000 O   0  0  0  0  0  0  0  0  0  0  0  0
    6.5750   -3.5170    0.0000 O   0  0  0  0  0  0  0  0  0  0  0  0
    7.2210   -1.7250    0.0000 O   0  0  0  0  0  0  0  0  0  0  0  0
    7.2210   -3.0250    0.0000 N   0  0  0  0  0  0  0  0  0  0  0  0
    5.5060   -4.9700    0.0000 C   0  0  0  0  0  0  0  0  0  0  0  0
    6.7660   -4.6340    0.0000 C   0  0  0  0  0  0  0  0  0  0  0  0
    6.4270   -5.8950    0.0000 C   0  0  0  0  0  0  0  0  0  0  0  0
    5.6980   -5.6990    0.0000 C   0  0  0  0  0  0  0  0  0  0  0  0
    6.9600   -5.3600    0.0000 C   0  0  0  0  0  0  0  0  0  0  0  0
    6.6170   -6.6170    0.0000 Br  0  0  0  0  0  0  0  0  0  0  0  0
    7.9710   -3.0250    0.0000 O   0  0  0  0  0  0  0  0  0  0  0  0
    4.2210   -2.9920    0.0000 C   0  0  0  0  0  0  0  0  0  0  0  0
    4.2140   -1.7740    0.0000 C   0  0  0  0  0  0  0  0  0  0  0  0
    3.7740   -2.3850    0.0000 C   0  0  0  0  0  0  0  0  0  0  0  0
    4.9270   -1.0040    0.0000 H   0  0  0  0  0  0  0  0  0  0  0  0
    4.9390   -3.7580    0.0000 H   0  0  0  0  0  0  0  0  0  0  0  0
  8 21  1  0  0  0  0
 21 22  1  0  0  0  0
 22 20  1  0  0  0  0
 20  5  1  0  0  0  0
  8  5  1  0  0  0  0
  5  1  1  0  0  0  0
  1  3  1  0  0  0  0
  3  6  1  0  0  0  0
  6  8  1  0  0  0  0
  3  4  1  6  0  0  0
  1  2  1  0  0  0  0
  2  9  2  0  0  0  0
  2 10  2  0  0  0  0
  2  7  1  0  0  0  0
  4 11  2  0  0  0  0
  4 12  1  0  0  0  0
 12 19  1  0  0  0  0
  7 13  2  0  0  0  0
 13 16  1  0  0  0  0
 16 15  2  0  0  0  0
 15 17  1  0  0  0  0
 17 14  2  0  0  0  0
 14  7  1  0  0  0  0
 15 18  1  0  0  0  0
  8 23  1  1  0  0  0
  5 24  1  1  0  0  0
M  END
>  <ID_NEW>
CPDMM2213

>  <pIC50>
6.481486060122112

$$$$

  -MTS-   10172316422D 0   0.00000     0.00000     0

 37 40  0  0  1  0  0  0  0  0999 V2000
   -2.3220    1.8540    0.0000 C   0  0  0  0  0  0  0  0  0  0  0  0
   -2.9690    1.5830    0.0000 S   0  0  0  0  0  0  0  0  0  0  0  0
   -2.4140    1.1640    0.0000 O   0  0  0  0  0  0  0  0  0  0  0  0
   -3.3890    1.0320    0.0000 O   0  0  0  0  0  0  0  0  0  0  0  0
   -1.7730    1.4250    0.0000 C   0  0  0  0  0  0  0  0  0  0  0  0
   -1.1250    1.6960    0.0000 C   0  0  0  0  0  0  0  0  0  0  0  0
   -1.0400    2.3860    0.0000 C   0  0  0  0  0  0  0  0  0  0  0  0
   -1.5970    2.8080    0.0000 C   0  0  0  0  0  0  0  0  0  0  0  0
   -2.2340    2.5390    0.0000 C   0  0  0  0  0  0  0  0  0  0  0  0
   -5.8330    3.1000    0.0000 C   0  0  0  0  0  0  0  0  0  0  0  0
   -5.8330    2.4000    0.0000 C   0  0  0  0  0  0  0  0  0  0  0  0
   -5.2330    2.0580    0.0000 C   0  0  0  0  0  0  0  0  0  0  0  0
   -5.2330    3.4500    0.0000 C   0  0  0  0  0  0  0  0  0  0  0  0
   -4.6280    3.1000    0.0000 C   0  0  2  0  0  0  0  0  0  0  0  0
   -4.0860    3.5270    0.0000 C   0  0  0  0  0  0  0  0  0  0  0  0
   -3.4090    3.3710    0.0000 C   0  0  0  0  0  0  0  0  0  0  0  0
   -3.1110    2.7540    0.0000 C   0  0  0  0  0  0  0  0  0  0  0  0
   -4.6210    2.4000    0.0000 C   0  0  2  0  0  0  0  0  0  0  0  0
   -3.4110    2.1280    0.0000 N   0  0  0  0  0  0  0  0  0  0  0  0
   -4.0800    1.9690    0.0000 C   0  0  2  0  0  0  0  0  0  0  0  0
   -4.2360    1.2880    0.0000 C   0  0  0  0  0  0  0  0  0  0  0  0
   -4.9020    1.0840    0.0000 N   0  0  0  0  0  0  0  0  0  0  0  0
   -3.7210    0.8150    0.0000 O   0  0  0  0  0  0  0  0  0  0  0  0
   -0.3980    2.6550    0.0000 O   0  0  0  0  0  0  0  0  0  0  0  0
    0.1560    2.2350    0.0000 C   0  0  0  0  0  0  0  0  0  0  0  0
    0.0690    1.5460    0.0000 C   0  0  0  0  0  0  0  0  0  0  0  0
    0.6240    1.1250    0.0000 C   0  0  0  0  0  0  0  0  0  0  0  0
    1.2650    1.3950    0.0000 C   0  0  0  0  0  0  0  0  0  0  0  0
    1.3460    2.0890    0.0000 C   0  0  0  0  0  0  0  0  0  0  0  0
    0.7920    2.5060    0.0000 C   0  0  0  0  0  0  0  0  0  0  0  0
   -5.2500    0.4870    0.0000 O   0  0  0  0  0  0  0  0  0  0  0  0
    1.8210    0.9770    0.0000 S   0  0  0  0  0  0  0  0  0  0  0  0
    2.3120    0.4870    0.0000 C   0  0  0  0  0  0  0  0  0  0  0  0
    2.3120    1.4750    0.0000 O   0  0  0  0  0  0  0  0  0  0  0  0
    1.3250    0.4870    0.0000 O   0  0  0  0  0  0  0  0  0  0  0  0
   -4.7020    1.4030    0.0000 H   0  0  0  0  0  0  0  0  0  0  0  0
   -4.7000    4.0970    0.0000 H   0  0  0  0  0  0  0  0  0  0  0  0
 27 28  2  0  0  0  0
 28 29  1  0  0  0  0
 29 30  2  0  0  0  0
 30 25  1  0  0  0  0
 22 31  1  0  0  0  0
  1  2  1  0  0  0  0
  2  3  2  0  0  0  0
  2  4  2  0  0  0  0
  1  5  2  0  0  0  0
  5  6  1  0  0  0  0
  6  7  2  0  0  0  0
  7  8  1  0  0  0  0
  8  9  2  0  0  0  0
  9  1  1  0  0  0  0
 10 11  1  0  0  0  0
 10 13  1  0  0  0  0
 11 12  1  0  0  0  0
 12 18  1  0  0  0  0
 14 13  1  0  0  0  0
 14 15  1  0  0  0  0
 15 16  1  0  0  0  0
 16 17  1  0  0  0  0
 14 18  1  0  0  0  0
 17 19  1  0  0  0  0
 18 20  1  0  0  0  0
 19 20  1  0  0  0  0
 21 22  1  0  0  0  0
 21 23  2  0  0  0  0
 20 21  1  6  0  0  0
 19  2  1  0  0  0  0
  7 24  1  0  0  0  0
 24 25  1  0  0  0  0
 25 26  2  0  0  0  0
 26 27  1  0  0  0  0
 28 32  1  0  0  0  0
 32 33  1  0  0  0  0
 32 34  2  0  0  0  0
 32 35  2  0  0  0  0
 18 36  1  1  0  0  0
 14 37  1  1  0  0  0
M  END
>  <ID_NEW>
CPDMM2214

>  <pIC50>
6.4422077731069605

$$$$

  -MTS-   10172316422D 0   0.00000     0.00000     0

 33 36  0  0  1  0  0  0  0  0999 V2000
   -2.9330    1.8210    0.0000 N   0  0  0  0  0  0  0  0  0  0  0  0
   -5.8310    2.9710    0.0000 C   0  0  0  0  0  0  0  0  0  0  0  0
   -5.8320    2.1430    0.0000 C   0  0  0  0  0  0  0  0  0  0  0  0
   -5.1170    1.7310    0.0000 C   0  0  0  0  0  0  0  0  0  0  0  0
   -5.1190    3.3840    0.0000 C   0  0  0  0  0  0  0  0  0  0  0  0
   -4.3980    2.1460    0.0000 C   0  0  2  0  0  0  0  0  0  0  0  0
   -4.4030    2.9740    0.0000 C   0  0  1  0  0  0  0  0  0  0  0  0
   -3.7560    3.5000    0.0000 C   0  0  0  0  0  0  0  0  0  0  0  0
   -3.7420    1.6320    0.0000 C   0  0  1  0  0  0  0  0  0  0  0  0
   -2.9440    3.3260    0.0000 C   0  0  0  0  0  0  0  0  0  0  0  0
   -2.5790    2.5800    0.0000 C   0  0  0  0  0  0  0  0  0  0  0  0
   -3.9200    0.8260    0.0000 C   0  0  0  0  0  0  0  0  0  0  0  0
   -4.7070    0.5780    0.0000 N   0  0  0  0  0  0  0  0  0  0  0  0
   -3.3120    0.2690    0.0000 O   0  0  0  0  0  0  0  0  0  0  0  0
   -4.8850   -0.2280    0.0000 O   0  0  0  0  0  0  0  0  0  0  0  0
   -2.4130    1.1810    0.0000 S   0  0  0  0  0  0  0  0  0  0  0  0
   -1.6210    1.4000    0.0000 C   0  0  0  0  0  0  0  0  0  0  0  0
   -3.2170    0.9710    0.0000 O   0  0  0  0  0  0  0  0  0  0  0  0
   -2.4210    0.3580    0.0000 O   0  0  0  0  0  0  0  0  0  0  0  0
   -1.0360    0.8210    0.0000 C   0  0  0  0  0  0  0  0  0  0  0  0
   -0.2450    1.0400    0.0000 C   0  0  0  0  0  0  0  0  0  0  0  0
   -0.0380    1.8360    0.0000 C   0  0  0  0  0  0  0  0  0  0  0  0
   -0.6290    2.4130    0.0000 C   0  0  0  0  0  0  0  0  0  0  0  0
   -1.4180    2.1920    0.0000 C   0  0  0  0  0  0  0  0  0  0  0  0
    0.7570    2.0570    0.0000 C   0  0  0  0  0  0  0  0  0  0  0  0
    1.3450    1.4780    0.0000 C   0  0  0  0  0  0  0  0  0  0  0  0
    2.1390    1.6990    0.0000 C   0  0  0  0  0  0  0  0  0  0  0  0
    2.3450    2.4990    0.0000 C   0  0  0  0  0  0  0  0  0  0  0  0
    1.7520    3.0780    0.0000 C   0  0  0  0  0  0  0  0  0  0  0  0
    0.9600    2.8540    0.0000 C   0  0  0  0  0  0  0  0  0  0  0  0
    3.1400    2.7210    0.0000 Cl  0  0  0  0  0  0  0  0  0  0  0  0
   -4.4850    3.9710    0.0000 H   0  0  0  0  0  0  0  0  0  0  0  0
   -4.4690    1.1490    0.0000 H   0  0  0  0  0  0  0  0  0  0  0  0
  2  3  1  0  0  0  0
  3  4  1  0  0  0  0
  4  6  1  0  0  0  0
  7  5  1  0  0  0  0
  5  2  1  0  0  0  0
  6  7  1  0  0  0  0
  7  8  1  0  0  0  0
  6  9  1  0  0  0  0
  8 10  1  0  0  0  0
  9  1  1  0  0  0  0
 10 11  1  0  0  0  0
  1 11  1  0  0  0  0
  9 12  1  6  0  0  0
 12 13  1  0  0  0  0
 12 14  2  0  0  0  0
 13 15  1  0  0  0  0
  1 16  1  0  0  0  0
 16 17  1  0  0  0  0
 16 18  2  0  0  0  0
 16 19  2  0  0  0  0
 17 20  2  0  0  0  0
 20 21  1  0  0  0  0
 21 22  2  0  0  0  0
 22 23  1  0  0  0  0
 23 24  2  0  0  0  0
 24 17  1  0  0  0  0
 22 25  1  0  0  0  0
 25 26  2  0  0  0  0
 26 27  1  0  0  0  0
 27 28  2  0  0  0  0
 28 29  1  0  0  0  0
 29 30  2  0  0  0  0
 30 25  1  0  0  0  0
 28 31  1  0  0  0  0
  7 32  1  1  0  0  0
  6 33  1  1  0  0  0
M  END
>  <ID_NEW>
CPDMM2215

>  <pIC50>
6.439769270572941

$$$$

  -MTS-   10172316422D 0   0.00000     0.00000     0

 35 38  0  0  1  0  0  0  0  0999 V2000
   -2.9330    2.1500    0.0000 N   0  0  0  0  0  0  0  0  0  0  0  0
   -5.8310    3.3000    0.0000 C   0  0  0  0  0  0  0  0  0  0  0  0
   -5.8320    2.4730    0.0000 C   0  0  0  0  0  0  0  0  0  0  0  0
   -5.1170    2.0600    0.0000 C   0  0  0  0  0  0  0  0  0  0  0  0
   -5.1190    3.7130    0.0000 C   0  0  0  0  0  0  0  0  0  0  0  0
   -4.3980    2.4760    0.0000 C   0  0  0  0  0  0  0  0  0  0  0  0
   -4.4030    3.3040    0.0000 C   0  0  0  0  0  0  0  0  0  0  0  0
   -3.7560    3.8300    0.0000 C   0  0  0  0  0  0  0  0  0  0  0  0
   -3.7420    1.9610    0.0000 C   0  0  1  0  0  0  0  0  0  0  0  0
   -2.9440    3.6550    0.0000 C   0  0  0  0  0  0  0  0  0  0  0  0
   -2.5790    2.9090    0.0000 C   0  0  0  0  0  0  0  0  0  0  0  0
   -3.9200    1.1560    0.0000 C   0  0  0  0  0  0  0  0  0  0  0  0
   -4.7070    0.9070    0.0000 N   0  0  0  0  0  0  0  0  0  0  0  0
   -3.3120    0.5980    0.0000 O   0  0  0  0  0  0  0  0  0  0  0  0
   -4.8850    0.1010    0.0000 O   0  0  0  0  0  0  0  0  0  0  0  0
   -2.4130    1.5100    0.0000 S   0  0  0  0  0  0  0  0  0  0  0  0
   -1.6210    1.7290    0.0000 C   0  0  0  0  0  0  0  0  0  0  0  0
   -3.2170    1.3000    0.0000 O   0  0  0  0  0  0  0  0  0  0  0  0
   -2.4210    0.6870    0.0000 O   0  0  0  0  0  0  0  0  0  0  0  0
   -1.0360    1.1500    0.0000 C   0  0  0  0  0  0  0  0  0  0  0  0
   -0.2450    1.3690    0.0000 C   0  0  0  0  0  0  0  0  0  0  0  0
   -0.0380    2.1650    0.0000 C   0  0  0  0  0  0  0  0  0  0  0  0
   -0.6290    2.7430    0.0000 C   0  0  0  0  0  0  0  0  0  0  0  0
   -1.4180    2.5210    0.0000 C   0  0  0  0  0  0  0  0  0  0  0  0
    0.7570    2.3860    0.0000 O   0  0  0  0  0  0  0  0  0  0  0  0
    1.3460    1.8090    0.0000 C   0  0  0  0  0  0  0  0  0  0  0  0
    1.1380    1.0130    0.0000 C   0  0  0  0  0  0  0  0  0  0  0  0
    1.7260    0.4360    0.0000 C   0  0  0  0  0  0  0  0  0  0  0  0
    2.5220    0.6570    0.0000 C   0  0  0  0  0  0  0  0  0  0  0  0
    2.7260    1.4600    0.0000 C   0  0  0  0  0  0  0  0  0  0  0  0
    2.1370    2.0340    0.0000 C   0  0  0  0  0  0  0  0  0  0  0  0
    3.1040    0.0750    0.0000 S   0  0  0  0  0  0  0  0  0  0  0  0
    3.6870   -0.5080    0.0000 C   0  0  0  0  0  0  0  0  0  0  0  0
    3.6870    0.6620    0.0000 O   0  0  0  0  0  0  0  0  0  0  0  0
    2.5170   -0.5080    0.0000 O   0  0  0  0  0  0  0  0  0  0  0  0
  2  3  2  0  0  0  0
  3  4  1  0  0  0  0
  4  6  2  0  0  0  0
  7  5  2  0  0  0  0
  5  2  1  0  0  0  0
  6  7  1  0  0  0  0
  7  8  1  0  0  0  0
  6  9  1  0  0  0  0
  8 10  1  0  0  0  0
  9  1  1  0  0  0  0
 10 11  1  0  0  0  0
  1 11  1  0  0  0  0
  9 12  1  6  0  0  0
 12 13  1  0  0  0  0
 12 14  2  0  0  0  0
 13 15  1  0  0  0  0
  1 16  1  0  0  0  0
 16 17  1  0  0  0  0
 16 18  2  0  0  0  0
 16 19  2  0  0  0  0
 17 20  2  0  0  0  0
 20 21  1  0  0  0  0
 21 22  2  0  0  0  0
 22 23  1  0  0  0  0
 23 24  2  0  0  0  0
 24 17  1  0  0  0  0
 22 25  1  0  0  0  0
 25 26  1  0  0  0  0
 26 27  2  0  0  0  0
 27 28  1  0  0  0  0
 28 29  2  0  0  0  0
 29 30  1  0  0  0  0
 30 31  2  0  0  0  0
 31 26  1  0  0  0  0
 29 32  1  0  0  0  0
 32 33  1  0  0  0  0
 32 34  2  0  0  0  0
 32 35  2  0  0  0  0
M  END
>  <ID_NEW>
CPDMM2216

>  <pIC50>
6.412969626012037

$$$$

  -MTS-   10172316422D 0   0.00000     0.00000     0

 28 31  0  0  1  0  0  0  0  0999 V2000
   -1.0380    0.5410    0.0000 N   0  0  0  0  0  0  0  0  0  0  0  0
   -1.0340    1.3690    0.0000 C   0  0  2  0  0  0  0  0  0  0  0  0
   -1.7550    0.1310    0.0000 C   0  0  0  0  0  0  0  0  0  0  0  0
   -0.3280    0.1310    0.0000 S   0  0  0  0  0  0  0  0  0  0  0  0
   -1.7550    1.7860    0.0000 C   0  0  0  0  0  0  0  0  0  0  0  0
   -0.3280    1.7900    0.0000 C   0  0  0  0  0  0  0  0  0  0  0  0
   -2.4690    0.5450    0.0000 C   0  0  0  0  0  0  0  0  0  0  0  0
    0.3860   -0.2830    0.0000 C   0  0  0  0  0  0  0  0  0  0  0  0
    0.2550    0.7170    0.0000 O   0  0  0  0  0  0  0  0  0  0  0  0
   -0.9140   -0.4520    0.0000 O   0  0  0  0  0  0  0  0  0  0  0  0
   -2.4690    1.3720    0.0000 C   0  0  0  0  0  0  0  0  0  0  0  0
    0.3900    1.3860    0.0000 O   0  0  0  0  0  0  0  0  0  0  0  0
   -0.3340    2.6140    0.0000 O   0  0  0  0  0  0  0  0  0  0  0  0
   -3.1830    0.1280    0.0000 C   0  0  0  0  0  0  0  0  0  0  0  0
    0.3830   -1.1070    0.0000 C   0  0  0  0  0  0  0  0  0  0  0  0
    1.0930    0.1280    0.0000 C   0  0  0  0  0  0  0  0  0  0  0  0
   -3.1830    1.7830    0.0000 C   0  0  0  0  0  0  0  0  0  0  0  0
   -3.8970    0.5410    0.0000 C   0  0  0  0  0  0  0  0  0  0  0  0
    1.0930   -1.5170    0.0000 C   0  0  0  0  0  0  0  0  0  0  0  0
    1.8070   -0.2790    0.0000 C   0  0  0  0  0  0  0  0  0  0  0  0
   -3.8970    1.3690    0.0000 C   0  0  0  0  0  0  0  0  0  0  0  0
    1.8070   -1.1070    0.0000 C   0  0  0  0  0  0  0  0  0  0  0  0
    2.5210   -1.5210    0.0000 C   0  0  0  0  0  0  0  0  0  0  0  0
    2.5140   -2.3410    0.0000 C   0  0  0  0  0  0  0  0  0  0  0  0
    3.2280   -1.1100    0.0000 C   0  0  0  0  0  0  0  0  0  0  0  0
    3.2240   -2.7520    0.0000 C   0  0  0  0  0  0  0  0  0  0  0  0
    3.9380   -1.5170    0.0000 C   0  0  0  0  0  0  0  0  0  0  0  0
    3.9380   -2.3450    0.0000 N   0  0  0  0  0  0  0  0  0  0  0  0
  1  2  1  0  0  0  0
  1  3  1  0  0  0  0
  1  4  1  0  0  0  0
  2  5  1  0  0  0  0
  2  6  1  6  0  0  0
  3  7  1  0  0  0  0
  4  8  1  0  0  0  0
  4  9  2  0  0  0  0
  4 10  2  0  0  0  0
  5 11  1  0  0  0  0
  6 12  1  0  0  0  0
  6 13  2  0  0  0  0
  7 14  2  0  0  0  0
  8 15  2  0  0  0  0
  8 16  1  0  0  0  0
 11 17  2  0  0  0  0
 14 18  1  0  0  0  0
 15 19  1  0  0  0  0
 16 20  2  0  0  0  0
 17 21  1  0  0  0  0
 19 22  2  0  0  0  0
 22 23  1  0  0  0  0
 23 24  2  0  0  0  0
 23 25  1  0  0  0  0
 24 26  1  0  0  0  0
 25 27  2  0  0  0  0
 26 28  2  0  0  0  0
  7 11  1  0  0  0  0
 18 21  2  0  0  0  0
 20 22  1  0  0  0  0
 27 28  1  0  0  0  0
M  END
>  <ID_NEW>
CPDMM2217

>  <pIC50>
6.3979400086720375

$$$$

  SciTegic12180812512D

 28 31  0  0  0  0            999 V2000
   -2.4917    1.2125    0.0000 S   0  0
   -1.6667    1.2125    0.0000 C   0  0
   -1.2560    0.4957    0.0000 C   0  0
   -0.4318    0.4954    0.0000 C   0  0
   -0.0185    1.2104    0.0000 C   0  0
   -0.4354    1.9272    0.0000 C   0  0
   -1.2583    1.9240    0.0000 C   0  0
    0.8065    1.2115    0.0000 C   0  0
    1.2156    0.4949    0.0000 C   0  0
    2.0398    0.4957    0.0000 C   0  0
    2.4522    1.2112    0.0000 C   0  0
    2.0343    1.9275    0.0000 C   0  0
    1.2114    1.9233    0.0000 C   0  0
    3.2772    1.2134    0.0000 Cl  0  0
   -3.0792    0.6292    0.0000 O   0  0
   -2.0833    0.5000    0.0000 O   0  0
   -4.4556    2.5921    0.0000 C   0  0
   -3.0755    2.5921    0.0000 C   0  0
   -4.4556    1.7960    0.0000 C   0  0
   -5.1432    2.9940    0.0000 C   0  0
   -3.0755    1.7960    0.0000 N   0  0
   -2.3956    2.9940    0.0000 C   0  0
   -3.7694    1.3941    0.0000 C   0  0
   -5.1432    1.3941    0.0000 C   0  0
   -5.8294    2.5921    0.0000 C   0  0
   -1.7017    2.5859    0.0000 O   0  0
   -2.3956    3.7970    0.0000 O   0  0
   -5.8294    1.7960    0.0000 C   0  0
  1  2  1  0
  2  3  2  0
  3  4  1  0
  4  5  2  0
  5  6  1  0
  6  7  2  0
  7  2  1  0
  5  8  1  0
  8  9  2  0
  9 10  1  0
 10 11  2  0
 11 12  1  0
 12 13  2  0
 13  8  1  0
 11 14  1  0
  1 15  2  0
  1 16  2  0
 17 18  1  0
 17 19  2  0
 17 20  1  0
 18 21  1  0
 18 22  1  0
 19 23  1  0
 19 24  1  0
 20 25  2  0
 22 26  1  0
 22 27  2  0
 24 28  2  0
 21 23  1  0
 25 28  1  0
 21  1  1  0
M  END
>  <ID_NEW>
CPDMM2218

>  <pIC50>
6.3979400086720375

$$$$

  SciTegic12180813002D

 29 32  0  0  0  0            999 V2000
    6.6358    7.1980    0.0000 O   0  0
    5.3449    6.4341    0.0000 C   0  0
    5.6725    4.9704    0.0000 C   0  0
    7.7613    6.2064    0.0000 C   0  0
    7.1659    4.8296    0.0000 C   0  0
    8.0605    3.6256    0.0000 C   0  0
    9.5505    3.7984    0.0000 N   0  0
   10.1459    5.1752    0.0000 C   0  0
    9.2513    6.3791    0.0000 C   0  0
    7.4652    2.2488    0.0000 C   0  0
    5.9752    2.0760    0.0000 O   0  0
    8.3598    1.0448    0.0000 O   0  0
   13.0422    2.6676    0.0000 C   0  0
   11.7226    3.3807    0.0000 C   0  0
   11.6803    4.8801    0.0000 C   0  0
   12.9577    5.6664    0.0000 C   0  0
   14.2774    4.9533    0.0000 C   0  0
   14.3196    3.4539    0.0000 C   0  0
   15.5548    5.7396    0.0000 O   0  0
   16.7305    4.8082    0.0000 C   0  0
   18.1251    5.3607    0.0000 C   0  0
   19.3008    4.4293    0.0000 C   0  0
   19.0821    2.9453    0.0000 C   0  0
   17.6876    2.3928    0.0000 C   0  0
   16.5118    3.3242    0.0000 C   0  0
   10.4452    2.5944    0.0000 S   0  0
    9.3238    1.5982    0.0000 O   0  0
   11.3398    1.3904    0.0000 O   0  0
   20.2579    2.0139    0.0000 F   0  0
  8  9  1  0
 10 11  1  0
 10 12  2  0
  6 10  1  0
  2  3  1  0
  1  2  1  0
  3  5  1  0
  4  1  1  0
  4  5  1  0
  4  9  1  0
  5  6  1  0
  6  7  1  0
  7  8  1  0
 22 23  2  0
 17 18  2  0
 23 24  1  0
 18 13  1  0
 24 25  2  0
 25 20  1  0
 13 14  2  0
 17 19  1  0
 15 16  2  0
 19 20  1  0
 20 21  2  0
 14 26  1  0
 16 17  1  0
 21 22  1  0
 26 27  2  0
 14 15  1  0
 26 28  2  0
 23 29  1  0
  7 26  1  0
M  END
>  <ID_NEW>
CPDMM2219

>  <pIC50>
6.3872161432802645

$$$$

  -MTS-   10172316422D 0   0.00000     0.00000     0

 33 36  0  0  1  0  0  0  0  0999 V2000
   -5.1580    0.7090    0.0000 C   0  0  0  0  0  0  0  0  0  0  0  0
   -5.1540    2.2320    0.0000 O   0  0  0  0  0  0  0  0  0  0  0  0
   -5.7060    1.4720    0.0000 C   0  0  0  0  0  0  0  0  0  0  0  0
   -4.2620    1.9340    0.0000 C   0  0  1  0  0  0  0  0  0  0  0  0
   -4.2670    0.9960    0.0000 C   0  0  2  0  0  0  0  0  0  0  0  0
   -3.4580    0.5250    0.0000 C   0  0  2  0  0  0  0  0  0  0  0  0
   -2.6440    0.9920    0.0000 N   0  0  0  0  0  0  0  0  0  0  0  0
   -2.6390    1.9300    0.0000 C   0  0  0  0  0  0  0  0  0  0  0  0
   -3.4480    2.4000    0.0000 C   0  0  0  0  0  0  0  0  0  0  0  0
   -3.4590   -0.4090    0.0000 C   0  0  0  0  0  0  0  0  0  0  0  0
   -2.6500   -0.8790    0.0000 N   0  0  0  0  0  0  0  0  0  0  0  0
   -4.2730   -0.8750    0.0000 O   0  0  0  0  0  0  0  0  0  0  0  0
   -0.2610    0.9400    0.0000 C   0  0  0  0  0  0  0  0  0  0  0  0
   -1.1670    1.1810    0.0000 C   0  0  0  0  0  0  0  0  0  0  0  0
   -1.4050    2.0890    0.0000 C   0  0  0  0  0  0  0  0  0  0  0  0
   -0.7400    2.7520    0.0000 C   0  0  0  0  0  0  0  0  0  0  0  0
    0.1650    2.5080    0.0000 C   0  0  0  0  0  0  0  0  0  0  0  0
    0.4030    1.6000    0.0000 C   0  0  0  0  0  0  0  0  0  0  0  0
   -1.8310    0.5210    0.0000 S   0  0  0  0  0  0  0  0  0  0  0  0
   -2.3740   -0.2430    0.0000 O   0  0  0  0  0  0  0  0  0  0  0  0
   -1.1140   -0.0810    0.0000 O   0  0  0  0  0  0  0  0  0  0  0  0
    0.8290    3.1630    0.0000 O   0  0  0  0  0  0  0  0  0  0  0  0
    1.7350    2.9180    0.0000 C   0  0  0  0  0  0  0  0  0  0  0  0
    2.4000    3.5820    0.0000 C   0  0  0  0  0  0  0  0  0  0  0  0
    3.3050    3.3370    0.0000 C   0  0  0  0  0  0  0  0  0  0  0  0
    3.5430    2.4250    0.0000 C   0  0  0  0  0  0  0  0  0  0  0  0
    2.8790    1.7700    0.0000 C   0  0  0  0  0  0  0  0  0  0  0  0
    1.9730    2.0140    0.0000 C   0  0  0  0  0  0  0  0  0  0  0  0
    4.4490    2.1800    0.0000 C   0  0  0  0  0  0  0  0  0  0  0  0
    5.3550    1.9400    0.0000 N   0  0  0  0  0  0  0  0  0  0  0  0
   -2.6540   -1.8120    0.0000 O   0  0  0  0  0  0  0  0  0  0  0  0
   -4.3750    0.0020    0.0000 H   0  0  0  0  0  0  0  0  0  0  0  0
   -4.3610    2.9290    0.0000 H   0  0  0  0  0  0  0  0  0  0  0  0
  6 10  1  6  0  0  0
 10 11  1  0  0  0  0
 10 12  2  0  0  0  0
  1  5  1  0  0  0  0
  4  2  1  0  0  0  0
  2  3  1  0  0  0  0
  3  1  1  0  0  0  0
  4  9  1  0  0  0  0
  5  6  1  0  0  0  0
  6  7  1  0  0  0  0
  7  8  1  0  0  0  0
  8  9  1  0  0  0  0
  4  5  1  0  0  0  0
 19 21  2  0  0  0  0
 16 17  1  0  0  0  0
 17 22  1  0  0  0  0
 14 15  1  0  0  0  0
 22 23  1  0  0  0  0
 17 18  2  0  0  0  0
 23 24  2  0  0  0  0
 18 13  1  0  0  0  0
 24 25  1  0  0  0  0
 13 14  2  0  0  0  0
 25 26  2  0  0  0  0
 14 19  1  0  0  0  0
 26 27  1  0  0  0  0
 15 16  2  0  0  0  0
 27 28  2  0  0  0  0
 28 23  1  0  0  0  0
 26 29  1  0  0  0  0
 19 20  2  0  0  0  0
 29 30  3  0  0  0  0
  7 19  1  0  0  0  0
 11 31  1  0  0  0  0
  5 32  1  1  0  0  0
  4 33  1  1  0  0  0
M  END
>  <ID_NEW>
CPDMM2220

>  <pIC50>
6.384587628454659

$$$$

  SciTegic12180812572D

 34 37  0  0  0  0            999 V2000
   -2.3277    2.1583    0.0000 C   0  0
   -2.9726    1.8869    0.0000 S   0  0
   -2.4192    1.4687    0.0000 O   0  0
   -3.3947    1.3361    0.0000 O   0  0
   -1.7772    1.7295    0.0000 C   0  0
   -1.1328    2.0002    0.0000 C   0  0
   -1.0428    2.6901    0.0000 C   0  0
   -1.6033    3.1123    0.0000 C   0  0
   -2.2409    2.8430    0.0000 C   0  0
   -5.8333    3.4041    0.0000 C   0  0
   -5.8333    2.7041    0.0000 C   0  0
   -5.2338    2.3625    0.0000 C   0  0
   -5.2338    3.7541    0.0000 C   0  0
   -4.6301    3.4041    0.0000 C   0  0
   -4.0886    3.8317    0.0000 C   0  0
   -3.4163    3.6754    0.0000 C   0  0
   -3.1140    3.0587    0.0000 C   0  0
   -4.6291    2.7041    0.0000 C   0  0
   -3.4139    2.4320    0.0000 N   0  0
   -4.0863    2.2736    0.0000 C   0  0
   -4.2389    1.5918    0.0000 C   0  0
   -4.9058    1.3886    0.0000 O   0  0
   -3.7287    1.1195    0.0000 O   0  0
   -0.4014    2.9596    0.0000 O   0  0
    0.1527    2.5388    0.0000 C   0  0
    0.0645    1.8502    0.0000 C   0  0
    0.6179    1.4296    0.0000 C   0  0
    1.2601    1.6990    0.0000 C   0  0
    1.3457    2.3931    0.0000 C   0  0
    0.7914    2.8107    0.0000 C   0  0
    1.8154    1.2786    0.0000 S   0  0
    2.4125    0.9333    0.0000 C   0  0
    1.4667    0.6833    0.0000 O   0  0
    2.1542    1.8792    0.0000 O   0  0
  1  2  1  0
  2  3  2  0
  2  4  2  0
  1  5  2  0
  5  6  1  0
  6  7  2  0
  7  8  1  0
  8  9  2  0
  9  1  1  0
 10 11  1  0
 10 13  1  0
 11 12  1  0
 12 18  1  0
 14 13  1  0
 14 15  1  0
 15 16  1  0
 16 17  1  0
 14 18  1  0
 17 19  1  0
 18 20  1  0
 19 20  1  0
 21 22  1  0
 21 23  2  0
 20 21  1  0
 19  2  1  0
  7 24  1  0
 24 25  1  0
 25 26  2  0
 26 27  1  0
 27 28  2  0
 28 29  1  0
 29 30  2  0
 30 25  1  0
 28 31  1  0
 31 32  1  0
 31 33  2  0
 31 34  2  0
M  END
>  <ID_NEW>
CPDMM2221

>  <pIC50>
6.381195947356275

$$$$

  SciTegic12180812572D

 35 38  0  0  0  0            999 V2000
   -2.3277    2.1583    0.0000 C   0  0
   -2.9726    1.8869    0.0000 S   0  0
   -2.4192    1.4687    0.0000 O   0  0
   -3.3947    1.3361    0.0000 O   0  0
   -1.7772    1.7295    0.0000 C   0  0
   -1.1328    2.0002    0.0000 C   0  0
   -1.0428    2.6901    0.0000 C   0  0
   -1.6033    3.1123    0.0000 C   0  0
   -2.2409    2.8430    0.0000 C   0  0
   -5.8333    3.4041    0.0000 C   0  0
   -5.8333    2.7041    0.0000 C   0  0
   -5.2338    2.3625    0.0000 C   0  0
   -5.2338    3.7541    0.0000 C   0  0
   -4.6301    3.4041    0.0000 C   0  0
   -4.0886    3.8317    0.0000 C   0  0
   -3.4163    3.6754    0.0000 C   0  0
   -3.1140    3.0587    0.0000 C   0  0
   -4.6291    2.7041    0.0000 C   0  0
   -3.4139    2.4320    0.0000 N   0  0
   -4.0863    2.2736    0.0000 C   0  0
   -4.2389    1.5918    0.0000 C   0  0
   -4.9058    1.3886    0.0000 O   0  0
   -3.7287    1.1195    0.0000 O   0  0
   -0.4014    2.9596    0.0000 O   0  0
    0.1527    2.5388    0.0000 C   0  0
    0.0645    1.8502    0.0000 C   0  0
    0.6179    1.4296    0.0000 C   0  0
    1.2601    1.6990    0.0000 C   0  0
    1.3457    2.3931    0.0000 C   0  0
    0.7914    2.8107    0.0000 C   0  0
    1.8153    1.2786    0.0000 O   0  0
    1.7288    0.5875    0.0000 C   0  0
    2.2840    0.1671    0.0000 F   0  0
    1.0871    0.3170    0.0000 F   0  0
    1.7208   -0.1042    0.0000 F   0  0
  1  2  1  0
  2  3  2  0
  2  4  2  0
  1  5  2  0
  5  6  1  0
  6  7  2  0
  7  8  1  0
  8  9  2  0
  9  1  1  0
 10 11  1  0
 10 13  1  0
 11 12  1  0
 12 18  1  0
 14 13  1  0
 14 15  1  0
 15 16  1  0
 16 17  1  0
 14 18  1  0
 17 19  1  0
 18 20  1  0
 19 20  1  0
 21 22  1  0
 21 23  2  0
 20 21  1  0
 19  2  1  0
  7 24  1  0
 24 25  1  0
 25 26  2  0
 26 27  1  0
 27 28  2  0
 28 29  1  0
 29 30  2  0
 30 25  1  0
 28 31  1  0
 31 32  1  0
 32 33  1  0
 32 34  1  0
 32 35  1  0
M  END
>  <ID_NEW>
CPDMM2222

>  <pIC50>
6.307299338378069

$$$$

  SciTegic12180812482D

 29 32  0  0  0  0            999 V2000
   -5.8306    3.4042    0.0000 C   0  0
   -5.8318    2.5769    0.0000 C   0  0
   -5.1169    2.1640    0.0000 C   0  0
   -5.1187    3.8170    0.0000 C   0  0
   -4.4034    3.4079    0.0000 C   0  0
   -4.3999    2.5748    0.0000 C   0  0
   -3.6808    2.1635    0.0000 C   0  0
   -2.9604    2.5807    0.0000 N   0  0
   -2.9638    3.4138    0.0000 C   0  0
   -3.6876    3.8297    0.0000 C   0  0
   -3.6785    1.3385    0.0000 C   0  0
   -4.3904    0.9204    0.0000 O   0  0
   -2.9615    0.9242    0.0000 O   0  0
   -2.2448    2.1701    0.0000 S   0  0
   -2.9625    1.7625    0.0000 O   0  0
   -1.8375    1.4584    0.0000 O   0  0
   -1.4500    2.3875    0.0000 C   0  0
   -0.8655    1.8052    0.0000 C   0  0
   -0.0713    2.0221    0.0000 C   0  0
    0.1384    2.8198    0.0000 C   0  0
   -0.4522    3.4005    0.0000 C   0  0
   -1.2441    3.1806    0.0000 C   0  0
    0.9339    3.0386    0.0000 O   0  0
    1.5211    2.4591    0.0000 C   0  0
    1.3105    1.6638    0.0000 C   0  0
    1.8968    1.0846    0.0000 C   0  0
    2.6933    1.3032    0.0000 N   0  0
    2.9001    2.1062    0.0000 C   0  0
    2.3122    2.6820    0.0000 C   0  0
  7  8  1  0
  8  9  1  0
  9 10  1  0
  7 11  1  0
 11 12  1  0
 11 13  2  0
  8 14  1  0
 14 15  2  0
 14 16  2  0
 14 17  1  0
 17 18  2  0
 18 19  1  0
 19 20  2  0
 20 21  1  0
 21 22  2  0
 22 17  1  0
 20 23  1  0
 23 24  1  0
 24 25  2  0
 25 26  1  0
 26 27  2  0
 27 28  1  0
 28 29  2  0
 29 24  1  0
  1  2  2  0
  2  3  1  0
  3  6  2  0
  5  4  2  0
  4  1  1  0
  5  6  1  0
  5 10  1  0
  6  7  1  0
M  END
>  <ID_NEW>
CPDMM2223

>  <pIC50>
6.30102999566398

$$$$

  -MTS-   10172316422D 0   0.00000     0.00000     0

 36 39  0  0  1  0  0  0  0  0999 V2000
   -0.5060    2.1800    0.0000 C   0  0  0  0  0  0  0  0  0  0  0  0
   -0.1970    0.7820    0.0000 C   0  0  0  0  0  0  0  0  0  0  0  0
    0.6100    0.9610    0.0000 C   0  0  0  0  0  0  0  0  0  0  0  0
    0.8570    1.7540    0.0000 C   0  0  0  0  0  0  0  0  0  0  0  0
    0.2970    2.3590    0.0000 C   0  0  0  0  0  0  0  0  0  0  0  0
   -0.7550    1.3910    0.0000 C   0  0  0  0  0  0  0  0  0  0  0  0
   -1.7540    1.1210    0.0000 S   0  0  0  0  0  0  0  0  0  0  0  0
   -5.5830    2.2920    0.0000 C   0  0  0  0  0  0  0  0  0  0  0  0
   -5.5830    1.4670    0.0000 C   0  0  0  0  0  0  0  0  0  0  0  0
   -4.8710    1.0580    0.0000 C   0  0  0  0  0  0  0  0  0  0  0  0
   -4.8710    2.7080    0.0000 C   0  0  0  0  0  0  0  0  0  0  0  0
   -4.1590    2.2920    0.0000 C   0  0  1  0  0  0  0  0  0  0  0  0
   -4.1630    1.4670    0.0000 C   0  0  2  0  0  0  0  0  0  0  0  0
   -3.4540    1.0530    0.0000 C   0  0  2  0  0  0  0  0  0  0  0  0
   -2.7370    1.4610    0.0000 N   0  0  0  0  0  0  0  0  0  0  0  0
   -2.7340    2.2860    0.0000 C   0  0  0  0  0  0  0  0  0  0  0  0
   -3.4470    2.7030    0.0000 C   0  0  0  0  0  0  0  0  0  0  0  0
   -3.4570    0.2270    0.0000 C   0  0  0  0  0  0  0  0  0  0  0  0
   -4.1740   -0.1820    0.0000 N   0  0  0  0  0  0  0  0  0  0  0  0
   -2.7450   -0.1900    0.0000 O   0  0  0  0  0  0  0  0  0  0  0  0
   -2.4920    0.3920    0.0000 O   0  0  0  0  0  0  0  0  0  0  0  0
   -1.2420    0.2210    0.0000 O   0  0  0  0  0  0  0  0  0  0  0  0
    1.6500    1.9750    0.0000 O   0  0  0  0  0  0  0  0  0  0  0  0
    2.4460    2.1920    0.0000 C   0  0  0  0  0  0  0  0  0  0  0  0
    2.9930    1.5730    0.0000 C   0  0  0  0  0  0  0  0  0  0  0  0
    3.7990    1.7400    0.0000 C   0  0  0  0  0  0  0  0  0  0  0  0
    3.5060    3.1400    0.0000 C   0  0  0  0  0  0  0  0  0  0  0  0
    2.7010    2.9710    0.0000 C   0  0  0  0  0  0  0  0  0  0  0  0
    4.8570    2.7450    0.0000 S   0  0  0  0  0  0  0  0  0  0  0  0
    5.0700    1.9540    0.0000 O   0  0  0  0  0  0  0  0  0  0  0  0
    4.6350    3.5460    0.0000 O   0  0  0  0  0  0  0  0  0  0  0  0
    5.6550    2.9540    0.0000 C   0  0  0  0  0  0  0  0  0  0  0  0
    4.0590    2.5230    0.0000 C   0  0  0  0  0  0  0  0  0  0  0  0
   -4.1790   -1.0040    0.0000 O   0  0  0  0  0  0  0  0  0  0  0  0
   -4.1650    0.4670    0.0000 H   0  0  0  0  0  0  0  0  0  0  0  0
   -4.1570    3.2920    0.0000 H   0  0  0  0  0  0  0  0  0  0  0  0
  6  2  1  0  0  0  0
  2  3  2  0  0  0  0
  3  4  1  0  0  0  0
  4  5  2  0  0  0  0
  5  1  1  0  0  0  0
  8  9  1  0  0  0  0
  8 11  1  0  0  0  0
  9 10  1  0  0  0  0
 10 13  1  0  0  0  0
 12 11  1  0  0  0  0
 12 13  1  0  0  0  0
 12 17  1  0  0  0  0
 13 14  1  0  0  0  0
 14 15  1  0  0  0  0
 15 16  1  0  0  0  0
 16 17  1  0  0  0  0
 15  7  1  0  0  0  0
 18 19  1  0  0  0  0
 18 20  2  0  0  0  0
 14 18  1  6  0  0  0
  7  6  1  0  0  0  0
  7 21  2  0  0  0  0
  7 22  2  0  0  0  0
  4 23  1  0  0  0  0
 23 24  1  0  0  0  0
 24 25  2  0  0  0  0
 25 26  1  0  0  0  0
 26 33  2  0  0  0  0
 33 27  1  0  0  0  0
 27 28  2  0  0  0  0
 28 24  1  0  0  0  0
 33 29  1  0  0  0  0
 29 30  2  0  0  0  0
 29 31  2  0  0  0  0
 29 32  1  0  0  0  0
 19 34  1  0  0  0  0
  1  6  2  0  0  0  0
 13 35  1  1  0  0  0
 12 36  1  1  0  0  0
M  END
>  <ID_NEW>
CPDMM2224

>  <pIC50>
6.29108497064666

$$$$

  -MTS-   10172316422D 0   0.00000     0.00000     0

 29 32  0  0  1  0  0  0  0  0999 V2000
    2.9910   -2.7100    0.0000 C   0  0  0  0  0  0  0  0  0  0  0  0
    2.6200   -2.0700    0.0000 C   0  0  0  0  0  0  0  0  0  0  0  0
    1.2600   -1.4010    0.0000 C   0  0  1  0  0  0  0  0  0  0  0  0
    0.8810   -0.7510    0.0000 C   0  0  0  0  0  0  0  0  0  0  0  0
    0.7590   -1.9620    0.0000 N   0  0  0  0  0  0  0  0  0  0  0  0
    0.0700   -1.6590    0.0000 C   0  0  1  0  0  0  0  0  0  0  0  0
    0.1490   -0.9060    0.0000 C   0  0  2  0  0  0  0  0  0  0  0  0
   -0.5430   -0.6000    0.0000 C   0  0  0  0  0  0  0  0  0  0  0  0
   -1.0490   -1.1630    0.0000 C   0  0  0  0  0  0  0  0  0  0  0  0
   -0.6690   -1.8170    0.0000 C   0  0  0  0  0  0  0  0  0  0  0  0
    0.7540   -2.7080    0.0000 S   0  0  0  0  0  0  0  0  0  0  0  0
    0.1040   -3.0790    0.0000 O   0  0  0  0  0  0  0  0  0  0  0  0
    0.9460   -3.4290    0.0000 O   0  0  0  0  0  0  0  0  0  0  0  0
    1.5000   -2.7080    0.0000 C   0  0  0  0  0  0  0  0  0  0  0  0
    1.8710   -3.3560    0.0000 C   0  0  0  0  0  0  0  0  0  0  0  0
    2.6160   -3.3570    0.0000 C   0  0  0  0  0  0  0  0  0  0  0  0
    1.8690   -2.0650    0.0000 C   0  0  0  0  0  0  0  0  0  0  0  0
    3.7250   -2.7080    0.0000 C   0  0  0  0  0  0  0  0  0  0  0  0
    4.0920   -3.3450    0.0000 C   0  0  0  0  0  0  0  0  0  0  0  0
    4.8250   -3.3440    0.0000 C   0  0  0  0  0  0  0  0  0  0  0  0
    5.1910   -2.7070    0.0000 C   0  0  0  0  0  0  0  0  0  0  0  0
    4.8190   -2.0700    0.0000 C   0  0  0  0  0  0  0  0  0  0  0  0
    4.0870   -2.0750    0.0000 C   0  0  0  0  0  0  0  0  0  0  0  0
    5.9210   -2.7040    0.0000 Cl  0  0  0  0  0  0  0  0  0  0  0  0
    2.0080   -1.4000    0.0000 C   0  0  0  0  0  0  0  0  0  0  0  0
    2.7290   -1.5920    0.0000 O   0  0  0  0  0  0  0  0  0  0  0  0
    2.0040   -0.6500    0.0000 O   0  0  0  0  0  0  0  0  0  0  0  0
    0.2520    0.0880    0.0000 H   0  0  0  0  0  0  0  0  0  0  0  0
   -0.0310   -2.6540    0.0000 H   0  0  0  0  0  0  0  0  0  0  0  0
  3  4  1  0  0  0  0
 14 15  1  0  0  0  0
  4  7  1  0  0  0  0
 15 16  2  0  0  0  0
 16  1  1  0  0  0  0
  6  5  1  0  0  0  0
  2 17  1  0  0  0  0
 17 14  2  0  0  0  0
  7  8  1  0  0  0  0
  1 18  1  0  0  0  0
  8  9  1  0  0  0  0
 18 19  2  0  0  0  0
  9 10  1  0  0  0  0
 19 20  1  0  0  0  0
 10  6  1  0  0  0  0
 20 21  2  0  0  0  0
  5  3  1  0  0  0  0
 21 22  1  0  0  0  0
  5 11  1  0  0  0  0
 22 23  2  0  0  0  0
 23 18  1  0  0  0  0
  6  7  1  0  0  0  0
 21 24  1  0  0  0  0
 11 12  2  0  0  0  0
  3 25  1  6  0  0  0
 25 26  1  0  0  0  0
 11 13  2  0  0  0  0
 25 27  2  0  0  0  0
  2  1  2  0  0  0  0
 11 14  1  0  0  0  0
  7 28  1  1  0  0  0
  6 29  1  1  0  0  0
M  END
>  <ID_NEW>
CPDMM2225

>  <pIC50>
6.22794026945527

$$$$

  -MTS-   10172316422D 0   0.00000     0.00000     0

 31 34  0  0  1  0  0  0  0  0999 V2000
   -5.7060    2.4960    0.0000 C   0  0  0  0  0  0  0  0  0  0  0  0
   -5.7070    1.8560    0.0000 C   0  0  0  0  0  0  0  0  0  0  0  0
   -5.1170    1.5350    0.0000 C   0  0  0  0  0  0  0  0  0  0  0  0
   -5.1190    2.8210    0.0000 C   0  0  0  0  0  0  0  0  0  0  0  0
   -4.5330    2.4990    0.0000 C   0  0  0  0  0  0  0  0  0  0  0  0
   -4.5330    1.8580    0.0000 C   0  0  0  0  0  0  0  0  0  0  0  0
   -3.9470    1.5340    0.0000 C   0  0  0  0  0  0  0  0  0  0  0  0
   -3.3520    1.8560    0.0000 N   0  0  0  0  0  0  0  0  0  0  0  0
   -3.3510    2.4970    0.0000 C   0  0  2  0  0  0  0  0  0  0  0  0
   -3.9460    2.8210    0.0000 C   0  0  0  0  0  0  0  0  0  0  0  0
   -2.7590    2.8240    0.0000 C   0  0  0  0  0  0  0  0  0  0  0  0
   -2.1720    2.4930    0.0000 N   0  0  0  0  0  0  0  0  0  0  0  0
   -2.7570    3.4580    0.0000 O   0  0  0  0  0  0  0  0  0  0  0  0
   -2.7610    1.5330    0.0000 S   0  0  0  0  0  0  0  0  0  0  0  0
   -2.1670    1.2080    0.0000 C   0  0  0  0  0  0  0  0  0  0  0  0
   -2.4170    2.0930    0.0000 O   0  0  0  0  0  0  0  0  0  0  0  0
   -3.1050    0.9680    0.0000 O   0  0  0  0  0  0  0  0  0  0  0  0
   -2.1680    0.5540    0.0000 C   0  0  0  0  0  0  0  0  0  0  0  0
   -1.5750    0.2250    0.0000 C   0  0  0  0  0  0  0  0  0  0  0  0
   -0.9690    0.5490    0.0000 C   0  0  0  0  0  0  0  0  0  0  0  0
   -0.9690    1.2070    0.0000 C   0  0  0  0  0  0  0  0  0  0  0  0
   -1.5670    1.5280    0.0000 C   0  0  0  0  0  0  0  0  0  0  0  0
   -0.3800    0.2270    0.0000 N   0  0  0  0  0  0  0  0  0  0  0  0
   -0.3910   -0.4090    0.0000 C   0  0  0  0  0  0  0  0  0  0  0  0
    0.1930   -0.7310    0.0000 C   0  0  0  0  0  0  0  0  0  0  0  0
    0.7860   -0.4110    0.0000 N   0  0  0  0  0  0  0  0  0  0  0  0
    0.7890    0.2230    0.0000 C   0  0  0  0  0  0  0  0  0  0  0  0
    0.1960    0.5500    0.0000 C   0  0  0  0  0  0  0  0  0  0  0  0
    1.3610   -0.7640    0.0000 C   0  0  0  0  0  0  0  0  0  0  0  0
    1.9500   -0.4380    0.0000 C   0  0  0  0  0  0  0  0  0  0  0  0
   -1.5900    2.8360    0.0000 O   0  0  0  0  0  0  0  0  0  0  0  0
  8  9  1  0  0  0  0
 20 21  1  0  0  0  0
  9 10  1  0  0  0  0
 21 22  2  0  0  0  0
 22 15  1  0  0  0  0
  5  6  1  0  0  0  0
 20 23  1  0  0  0  0
 23 24  1  0  0  0  0
  9 11  1  6  0  0  0
 11 12  1  0  0  0  0
  2  3  1  0  0  0  0
 11 13  2  0  0  0  0
 23 28  1  0  0  0  0
 24 25  1  0  0  0  0
 25 26  1  0  0  0  0
 26 27  1  0  0  0  0
 27 28  1  0  0  0  0
  3  6  2  0  0  0  0
  8 14  1  0  0  0  0
  1  2  2  0  0  0  0
 14 15  1  0  0  0  0
  5  4  2  0  0  0  0
 14 16  2  0  0  0  0
  4  1  1  0  0  0  0
 14 17  2  0  0  0  0
  5 10  1  0  0  0  0
 15 18  2  0  0  0  0
  6  7  1  0  0  0  0
 18 19  1  0  0  0  0
 26 29  1  0  0  0  0
  7  8  1  0  0  0  0
 29 30  1  0  0  0  0
 19 20  2  0  0  0  0
 12 31  1  0  0  0  0
M  END
>  <ID_NEW>
CPDMM2226

>  <pIC50>
6.221848749616355

$$$$

  SciTegic12180812482D

 34 37  0  0  0  0            999 V2000
   -4.3806    2.2792    0.0000 C   0  0
   -4.3818    1.4518    0.0000 C   0  0
   -3.6669    1.0390    0.0000 C   0  0
   -3.6687    2.6920    0.0000 C   0  0
   -2.9534    2.2828    0.0000 C   0  0
   -2.9499    1.4498    0.0000 C   0  0
   -2.2308    1.0385    0.0000 C   0  0
   -1.5104    1.4557    0.0000 N   0  0
   -1.5138    2.2887    0.0000 C   0  0
   -2.2376    2.7046    0.0000 C   0  0
   -5.0952    2.6915    0.0000 N   0  3
   -5.8103    2.2786    0.0000 O   0  0
   -5.0961    3.5163    0.0000 O   0  5
   -2.2285    0.2135    0.0000 C   0  0
   -2.9404   -0.2047    0.0000 O   0  0
   -1.5115   -0.2008    0.0000 O   0  0
   -0.7948    1.0451    0.0000 S   0  0
   -0.7925    0.2201    0.0000 O   0  0
   -1.5958    0.8333    0.0000 O   0  0
   -0.0324    1.3604    0.0000 C   0  0
    0.6218    0.8578    0.0000 C   0  0
    1.3842    1.1730    0.0000 C   0  0
    2.0355    0.6680    0.0000 C   0  0
    2.7973    0.9827    0.0000 C   0  0
    2.9060    1.8014    0.0000 C   0  0
    2.2468    2.3045    0.0000 C   0  0
    1.4876    1.9871    0.0000 C   0  0
    3.6680    2.1177    0.0000 C   0  0
    4.3187    1.6139    0.0000 C   0  0
    5.0801    1.9296    0.0000 C   0  0
    5.1878    2.7484    0.0000 C   0  0
    4.5279    3.2507    0.0000 C   0  0
    3.7691    2.9323    0.0000 C   0  0
    5.9493    3.0657    0.0000 Cl  0  0
 31 32  1  0
  4  1  1  0
 32 33  2  0
 33 28  1  0
  7 14  1  0
 31 34  1  0
  5  6  1  0
 14 15  1  0
 14 16  2  0
  8 17  1  0
 17 18  2  0
  1  2  2  0
 17 19  2  0
 17 20  1  0
  2  3  1  0
 20 21  1  0
  5 10  1  0
 21 22  1  0
  6  7  1  0
 22 23  2  0
  7  8  1  0
 23 24  1  0
  8  9  1  0
 24 25  2  0
  9 10  1  0
 25 26  1  0
  3  6  2  0
 26 27  2  0
 27 22  1  0
  1 11  1  0
 25 28  1  0
 28 29  2  0
  5  4  2  0
 29 30  1  0
 11 12  2  0
 30 31  2  0
 11 13  1  0
M  CHG  2  11   1  13  -1
M  END
>  <ID_NEW>
CPDMM2227

>  <pIC50>
6.221848749616355

$$$$

  -MTS-   10172316422D 0   0.00000     0.00000     0

 30 33  0  0  1  0  0  0  0  0999 V2000
    1.7820   -4.6000    0.0000 C   0  0  0  0  0  0  0  0  0  0  0  0
    1.7810   -5.4270    0.0000 C   0  0  0  0  0  0  0  0  0  0  0  0
    2.4960   -5.8400    0.0000 C   0  0  0  0  0  0  0  0  0  0  0  0
    2.4940   -4.1870    0.0000 C   0  0  0  0  0  0  0  0  0  0  0  0
    3.2090   -4.5960    0.0000 C   0  0  0  0  0  0  0  0  0  0  0  0
    3.2080   -5.4250    0.0000 C   0  0  0  0  0  0  0  0  0  0  0  0
    3.9210   -5.8380    0.0000 C   0  0  2  0  0  0  0  0  0  0  0  0
    4.6400   -5.4270    0.0000 N   0  0  0  0  0  0  0  0  0  0  0  0
    4.6410   -4.5980    0.0000 C   0  0  0  0  0  0  0  0  0  0  0  0
    3.9230   -4.1810    0.0000 C   0  0  0  0  0  0  0  0  0  0  0  0
    5.3530   -5.8410    0.0000 S   0  0  0  0  0  0  0  0  0  0  0  0
    5.7580   -5.1210    0.0000 O   0  0  0  0  0  0  0  0  0  0  0  0
    4.9330   -6.5500    0.0000 O   0  0  0  0  0  0  0  0  0  0  0  0
    6.0650   -6.2580    0.0000 C   0  0  0  0  0  0  0  0  0  0  0  0
    3.9190   -6.6630    0.0000 C   0  0  0  0  0  0  0  0  0  0  0  0
    3.2030   -7.0730    0.0000 O   0  0  0  0  0  0  0  0  0  0  0  0
    4.6320   -7.0770    0.0000 O   0  0  0  0  0  0  0  0  0  0  0  0
    6.0540   -7.0840    0.0000 C   0  0  0  0  0  0  0  0  0  0  0  0
    6.7650   -7.5010    0.0000 C   0  0  0  0  0  0  0  0  0  0  0  0
    7.4830   -7.0930    0.0000 C   0  0  0  0  0  0  0  0  0  0  0  0
    7.4860   -6.2640    0.0000 C   0  0  0  0  0  0  0  0  0  0  0  0
    6.7750   -5.8510    0.0000 C   0  0  0  0  0  0  0  0  0  0  0  0
    8.1960   -7.5090    0.0000 O   0  0  0  0  0  0  0  0  0  0  0  0
    8.9080   -7.0920    0.0000 C   0  0  0  0  0  0  0  0  0  0  0  0
    9.6260   -7.5030    0.0000 C   0  0  0  0  0  0  0  0  0  0  0  0
   10.3380   -7.0860    0.0000 C   0  0  0  0  0  0  0  0  0  0  0  0
   10.3330   -6.2590    0.0000 C   0  0  0  0  0  0  0  0  0  0  0  0
    9.6100   -5.8510    0.0000 C   0  0  0  0  0  0  0  0  0  0  0  0
    8.9010   -6.2700    0.0000 C   0  0  0  0  0  0  0  0  0  0  0  0
   11.0440   -5.8410    0.0000 F   0  0  0  0  0  0  0  0  0  0  0  0
  5  4  2  0  0  0  0
  7 15  1  6  0  0  0
  4  1  1  0  0  0  0
 15 16  1  0  0  0  0
  5 10  1  0  0  0  0
 15 17  2  0  0  0  0
  6  7  1  0  0  0  0
 14 18  2  0  0  0  0
  7  8  1  0  0  0  0
 18 19  1  0  0  0  0
  8  9  1  0  0  0  0
 19 20  2  0  0  0  0
  9 10  1  0  0  0  0
 20 21  1  0  0  0  0
  5  6  1  0  0  0  0
 21 22  2  0  0  0  0
 22 14  1  0  0  0  0
 20 23  1  0  0  0  0
  8 11  1  0  0  0  0
 23 24  1  0  0  0  0
  2  3  1  0  0  0  0
 24 25  2  0  0  0  0
 11 12  2  0  0  0  0
 25 26  1  0  0  0  0
  3  6  2  0  0  0  0
 26 27  2  0  0  0  0
 11 13  2  0  0  0  0
 27 28  1  0  0  0  0
  1  2  2  0  0  0  0
 28 29  2  0  0  0  0
 29 24  1  0  0  0  0
 11 14  1  0  0  0  0
 27 30  1  0  0  0  0
M  END
>  <ID_NEW>
CPDMM2228

>  <pIC50>
6.221848749616355

$$$$

  -MTS-   10172316422D 0   0.00000     0.00000     0

 37 40  0  0  1  0  0  0  0  0999 V2000
   -4.3770    2.4050    0.0000 C   0  0  2  0  0  0  0  0  0  0  0  0
   -3.8900    2.6850    0.0000 N   0  0  0  0  0  0  0  0  0  0  0  0
   -3.8930    3.2430    0.0000 C   0  0  0  0  0  0  0  0  0  0  0  0
   -4.3830    3.5210    0.0000 C   0  0  0  0  0  0  0  0  0  0  0  0
   -4.3740    1.8470    0.0000 C   0  0  0  0  0  0  0  0  0  0  0  0
   -4.8530    1.5750    0.0000 N   0  0  0  0  0  0  0  0  0  0  0  0
   -3.8910    1.5740    0.0000 O   0  0  0  0  0  0  0  0  0  0  0  0
   -2.9260    2.1290    0.0000 C   0  0  0  0  0  0  0  0  0  0  0  0
   -2.9270    1.5770    0.0000 C   0  0  0  0  0  0  0  0  0  0  0  0
   -2.4500    1.2970    0.0000 C   0  0  0  0  0  0  0  0  0  0  0  0
   -1.9670    1.5770    0.0000 C   0  0  0  0  0  0  0  0  0  0  0  0
   -1.9700    2.1330    0.0000 C   0  0  0  0  0  0  0  0  0  0  0  0
   -2.4520    2.4090    0.0000 C   0  0  0  0  0  0  0  0  0  0  0  0
   -3.4070    2.4080    0.0000 S   0  0  0  0  0  0  0  0  0  0  0  0
   -3.0170    2.8040    0.0000 O   0  0  0  0  0  0  0  0  0  0  0  0
   -3.8040    2.0170    0.0000 O   0  0  0  0  0  0  0  0  0  0  0  0
   -4.8580    2.6790    0.0000 C   0  0  1  0  0  0  0  0  0  0  0  0
   -4.8650    3.2410    0.0000 C   0  0  2  0  0  0  0  0  0  0  0  0
   -5.3500    3.5180    0.0000 C   0  0  0  0  0  0  0  0  0  0  0  0
   -5.8330    3.2410    0.0000 C   0  0  0  0  0  0  0  0  0  0  0  0
   -5.8300    2.6790    0.0000 C   0  0  0  0  0  0  0  0  0  0  0  0
   -5.3450    2.3930    0.0000 C   0  0  0  0  0  0  0  0  0  0  0  0
   -4.8470    1.0160    0.0000 O   0  0  0  0  0  0  0  0  0  0  0  0
   -1.4830    1.3000    0.0000 O   0  0  0  0  0  0  0  0  0  0  0  0
   -1.0000    1.5800    0.0000 C   0  0  0  0  0  0  0  0  0  0  0  0
   -0.5180    1.3020    0.0000 C   0  0  0  0  0  0  0  0  0  0  0  0
   -0.0350    1.5820    0.0000 C   0  0  0  0  0  0  0  0  0  0  0  0
   -0.0370    2.1410    0.0000 C   0  0  0  0  0  0  0  0  0  0  0  0
   -0.5250    2.4180    0.0000 C   0  0  0  0  0  0  0  0  0  0  0  0
   -1.0050    2.1370    0.0000 C   0  0  0  0  0  0  0  0  0  0  0  0
    0.4460    2.4230    0.0000 O   0  0  0  0  0  0  0  0  0  0  0  0
    0.9310    2.1450    0.0000 C   0  0  0  0  0  0  0  0  0  0  0  0
    1.4140    2.4270    0.0000 F   0  0  0  0  0  0  0  0  0  0  0  0
    0.9340    1.5870    0.0000 F   0  0  0  0  0  0  0  0  0  0  0  0
    0.7840    2.6850    0.0000 F   0  0  0  0  0  0  0  0  0  0  0  0
   -4.8690    4.2410    0.0000 H   0  0  0  0  0  0  0  0  0  0  0  0
   -4.8510    1.6790    0.0000 H   0  0  0  0  0  0  0  0  0  0  0  0
  1  5  1  6  0  0  0
  5  6  1  0  0  0  0
  5  7  2  0  0  0  0
  2 14  1  0  0  0  0
  8  9  2  0  0  0  0
  9 10  1  0  0  0  0
 10 11  2  0  0  0  0
 11 12  1  0  0  0  0
 12 13  2  0  0  0  0
 13  8  1  0  0  0  0
  8 14  1  0  0  0  0
 14 15  2  0  0  0  0
 14 16  2  0  0  0  0
 17 18  1  0  0  0  0
 17 22  1  0  0  0  0
 18 19  1  0  0  0  0
 19 20  1  0  0  0  0
 20 21  1  0  0  0  0
 21 22  1  0  0  0  0
  6 23  1  0  0  0  0
 11 24  1  0  0  0  0
 24 25  1  0  0  0  0
 25 26  2  0  0  0  0
 26 27  1  0  0  0  0
 27 28  2  0  0  0  0
 28 29  1  0  0  0  0
 29 30  2  0  0  0  0
 30 25  1  0  0  0  0
 28 31  1  0  0  0  0
 31 32  1  0  0  0  0
 32 33  1  0  0  0  0
 32 34  1  0  0  0  0
 32 35  1  0  0  0  0
 18  4  1  0  0  0  0
 17  1  1  0  0  0  0
  1  2  1  0  0  0  0
  2  3  1  0  0  0  0
  3  4  1  0  0  0  0
 18 36  1  1  0  0  0
 17 37  1  1  0  0  0
M  END
>  <ID_NEW>
CPDMM2229

>  <pIC50>
6.221848749616355

$$$$

  SciTegic12180812532D

 28 31  0  0  0  0            999 V2000
    0.5716    2.6045    0.0000 C   0  0
    1.2820    2.1919    0.0000 C   0  0
    1.9923    2.6007    0.0000 C   0  0
    1.9936    3.4220    0.0000 C   0  0
    1.2785    3.8327    0.0000 C   0  0
    0.5710    3.4215    0.0000 C   0  0
   -1.5618    1.3670    0.0000 C   0  0
   -0.8514    0.9544    0.0000 C   0  0
   -0.1410    1.3632    0.0000 C   0  0
   -0.1398    2.1845    0.0000 C   0  0
   -0.8548    2.5952    0.0000 C   0  0
   -1.5623    2.1840    0.0000 C   0  0
   -4.4125    2.1875    0.0000 C   0  0
   -4.4125    1.3625    0.0000 C   0  0
   -3.7020    0.9523    0.0000 C   0  0
   -2.9869    1.3625    0.0000 N   0  0
   -2.9869    2.1875    0.0000 C   0  0
   -3.7020    2.6023    0.0000 C   0  0
   -5.8333    2.1875    0.0000 C   0  0
   -5.8333    1.3625    0.0000 C   0  0
   -5.1213    0.9542    0.0000 C   0  0
   -5.1213    2.6042    0.0000 C   0  0
   -3.7083    0.1292    0.0000 C   0  0
   -4.4250   -0.2792    0.0000 O   0  0
   -2.9958   -0.2833    0.0000 O   0  0
   -2.2750    0.9500    0.0000 S   0  0
   -2.9917    0.5417    0.0000 O   0  0
   -1.6917    0.3667    0.0000 O   0  0
 13 18  1  0
 14 15  1  0
 15 16  1  0
 16 17  1  0
 17 18  1  0
 19 20  1  0
  4  5  1  0
  9 10  2  0
  2  3  1  0
 10 11  1  0
 19 22  1  0
 20 21  1  0
 21 14  1  0
 13 22  1  0
  5  6  2  0
 15 23  1  0
 11 12  2  0
 12  7  1  0
 13 14  1  0
 23 24  2  0
  6  1  1  0
 23 25  1  0
  1  2  2  0
  3  4  2  0
 16 26  1  0
 26  7  1  0
 10  1  1  0
  7  8  2  0
 26 27  2  0
  8  9  1  0
 26 28  2  0
M  END
>  <ID_NEW>
CPDMM2230

>  <pIC50>
6.221848749616355

$$$$

  SciTegic12180812592D

 30 34  0  0  0  0            999 V2000
    0.1193    1.1101    0.0000 S   0  0
    0.6463    1.4143    0.0000 C   0  0
    1.1801    1.1055    0.0000 C   0  0
    1.1750    2.3347    0.0000 C   0  0
    0.6474    2.0246    0.0000 C   0  0
   -0.3224    0.6726    0.0000 O   0  0
    0.4193    0.5768    0.0000 O   0  0
   -2.5416    2.0292    0.0000 C   0  0
   -2.5416    1.4126    0.0000 C   0  0
   -2.0088    1.1084    0.0000 C   0  0
   -2.0088    2.3418    0.0000 C   0  0
   -1.4801    2.0292    0.0000 C   0  0
   -1.4790    1.4126    0.0000 C   0  0
   -0.9472    1.1116    0.0000 C   0  0
   -0.4159    1.4144    0.0000 N   0  0
   -0.4170    2.0310    0.0000 C   0  0
   -0.9493    2.3408    0.0000 C   0  0
   -0.9473    0.4907    0.0000 C   0  0
   -0.4153    0.1809    0.0000 O   0  0
    1.7134    2.0288    0.0000 C   0  0
    1.7139    1.4111    0.0000 C   0  0
    2.3008    2.2202    0.0000 O   0  0
    2.6643    1.7207    0.0000 C   0  0
    2.3000    1.2237    0.0000 C   0  0
    2.5484    0.6612    0.0000 C   0  0
    3.1609    0.5949    0.0000 C   0  0
    3.5243    1.0956    0.0000 C   0  0
    3.2739    1.6561    0.0000 C   0  0
   -1.4857    0.1813    0.0000 N   0  0
   -1.4869   -0.4396    0.0000 O   0  0
  2  3  2  0
  3 21  1  0
 20  4  1  0
  4  5  2  0
  5  2  1  0
  1  6  2  0
  1  7  2  0
  8  9  1  0
  8 11  1  0
  9 10  1  0
 10 13  1  0
 12 11  1  0
 12 13  1  0
 12 17  1  0
 13 14  1  0
 14 15  1  0
 15 16  1  0
 16 17  1  0
 14 18  1  0
 18 19  2  0
 15  1  1  0
 20 21  2  0
 21 24  1  0
 23 22  1  0
 22 20  1  0
 23 24  2  0
 24 25  1  0
 25 26  2  0
 26 27  1  0
 27 28  2  0
 28 23  1  0
 18 29  1  0
  1  2  1  0
 29 30  1  0
M  END
>  <ID_NEW>
CPDMM2231

>  <pIC50>
6.221848749616355

$$$$

  SciTegic12180813002D

 28 31  0  0  0  0            999 V2000
    7.5677   -9.9163    0.0000 O   0  0
    6.3043  -10.7248    0.0000 C   0  0
    5.1449   -9.7730    0.0000 C   0  0
    7.1893   -8.4648    0.0000 C   0  0
    5.6919   -8.3762    0.0000 C   0  0
    5.0199   -7.0352    0.0000 C   0  0
    5.8453   -5.7827    0.0000 N   0  0
    7.3427   -5.8713    0.0000 C   0  0
    8.0147   -7.2123    0.0000 C   0  0
    3.5225   -6.9466    0.0000 C   0  0
    2.6971   -8.1991    0.0000 O   0  0
    2.8505   -5.6055    0.0000 O   0  0
    6.4084   -2.1559    0.0000 C   0  0
    6.4507   -3.6553    0.0000 C   0  0
    7.7704   -4.3684    0.0000 C   0  0
    9.0478   -3.5821    0.0000 C   0  0
    9.0055   -2.0827    0.0000 C   0  0
    7.6858   -1.3696    0.0000 C   0  0
   10.2829   -1.2964    0.0000 C   0  0
   11.6025   -2.0095    0.0000 C   0  0
   12.8799   -1.2232    0.0000 C   0  0
   12.8377    0.2762    0.0000 C   0  0
   11.5180    0.9893    0.0000 C   0  0
   10.2406    0.2030    0.0000 C   0  0
   14.1150    1.0625    0.0000 Cl  0  0
    5.1733   -4.4416    0.0000 S   0  0
    3.7788   -4.9942    0.0000 O   0  0
    4.5013   -3.1006    0.0000 O   0  0
  8  9  1  0
 10 11  1  0
 10 12  2  0
  6 10  1  0
  2  3  2  0
  1  2  1  0
  3  5  1  0
  4  1  1  0
  4  5  2  0
  4  9  1  0
  5  6  1  0
  6  7  1  0
  7  8  1  0
 20 21  1  0
 16 17  1  0
 21 22  2  0
 14 15  1  0
 22 23  1  0
 17 18  2  0
 23 24  2  0
 24 19  1  0
 18 13  1  0
 22 25  1  0
 13 14  2  0
 14 26  1  0
 17 19  1  0
 15 16  2  0
 26 27  2  0
 19 20  2  0
 26 28  2  0
  7 26  1  0
M  END
>  <ID_NEW>
CPDMM2232

>  <pIC50>
6.219203069242001

$$$$

  SciTegic12180812512D

 35 38  0  0  0  0            999 V2000
   -4.4014    3.3875    0.0000 C   0  0
   -4.4026    2.5602    0.0000 C   0  0
   -3.6878    2.1473    0.0000 C   0  0
   -3.6896    3.8003    0.0000 C   0  0
   -2.9742    3.3912    0.0000 C   0  0
   -2.9708    2.5581    0.0000 C   0  0
   -2.2516    2.1468    0.0000 C   0  0
   -1.5312    2.5640    0.0000 N   0  0
   -1.5346    3.3971    0.0000 C   0  0
   -2.2584    3.8130    0.0000 C   0  0
   -5.1160    3.7999    0.0000 O   0  0
   -5.8304    3.3872    0.0000 C   0  0
   -2.2493    1.3218    0.0000 C   0  0
   -2.9613    0.9037    0.0000 O   0  0
   -1.5323    0.9075    0.0000 O   0  0
   -0.8156    2.1534    0.0000 S   0  0
   -0.4708    2.9029    0.0000 O   0  0
   -1.1680    1.4074    0.0000 O   0  0
    0.6144    2.2437    0.0000 C   0  0
   -0.0750    1.7862    0.0000 C   0  0
   -0.0228    0.9625    0.0000 C   0  0
    0.7182    0.5949    0.0000 C   0  0
    1.4080    1.0574    0.0000 C   0  0
    1.3524    1.8797    0.0000 C   0  0
    2.1487    0.6938    0.0000 O   0  0
    2.9265    0.9755    0.0000 C   0  0
    3.5585    0.4398    0.0000 C   0  0
    4.3357    0.7207    0.0000 C   0  0
    4.4814    1.5361    0.0000 C   0  0
    3.8436    2.0697    0.0000 C   0  0
    3.0687    1.7858    0.0000 C   0  0
    5.2568    1.8178    0.0000 S   0  0
    5.4667    1.0250    0.0000 O   0  0
    4.8375    2.5375    0.0000 O   0  0
    6.0329    2.0976    0.0000 C   0  0
  1  2  2  0
  2  3  1  0
  3  6  2  0
  5  4  2  0
  4  1  1  0
  5  6  1  0
  5 10  1  0
  6  7  1  0
  7  8  1  0
  8  9  1  0
  9 10  1  0
  1 11  1  0
 11 12  1  0
  7 13  1  0
 13 14  1  0
 13 15  2  0
  8 16  1  0
 16 17  2  0
 16 18  2  0
 19 20  2  0
 20 21  1  0
 21 22  2  0
 22 23  1  0
 23 24  2  0
 24 19  1  0
 23 25  1  0
 25 26  1  0
 26 27  2  0
 27 28  1  0
 28 29  2  0
 29 30  1  0
 30 31  2  0
 31 26  1  0
 29 32  1  0
 20 16  1  0
 32 33  2  0
 32 34  2  0
 32 35  1  0
M  END
>  <ID_NEW>
CPDMM2233

>  <pIC50>
6.185223845949762

$$$$

  -MTS-   10172316422D 0   0.00000     0.00000     0

 34 37  0  0  1  0  0  0  0  0999 V2000
   -4.3250    0.8760    0.0000 C   0  0  0  0  0  0  0  0  0  0  0  0
   -5.1110    0.6280    0.0000 N   0  0  0  0  0  0  0  0  0  0  0  0
   -3.7160    0.3190    0.0000 O   0  0  0  0  0  0  0  0  0  0  0  0
   -5.2890   -0.1780    0.0000 O   0  0  0  0  0  0  0  0  0  0  0  0
   -2.8170    1.2310    0.0000 S   0  0  0  0  0  0  0  0  0  0  0  0
   -2.0250    1.4500    0.0000 C   0  0  0  0  0  0  0  0  0  0  0  0
   -3.6210    1.0210    0.0000 O   0  0  0  0  0  0  0  0  0  0  0  0
   -2.8250    0.4080    0.0000 O   0  0  0  0  0  0  0  0  0  0  0  0
   -1.4400    0.8710    0.0000 C   0  0  0  0  0  0  0  0  0  0  0  0
   -0.6490    1.0900    0.0000 C   0  0  0  0  0  0  0  0  0  0  0  0
   -0.4420    1.8860    0.0000 C   0  0  0  0  0  0  0  0  0  0  0  0
   -1.0330    2.4630    0.0000 C   0  0  0  0  0  0  0  0  0  0  0  0
   -1.8220    2.2420    0.0000 C   0  0  0  0  0  0  0  0  0  0  0  0
   -4.1470    1.6780    0.0000 C   0  0  1  0  0  0  0  0  0  0  0  0
   -3.3370    1.8710    0.0000 N   0  0  0  0  0  0  0  0  0  0  0  0
   -3.1010    2.6650    0.0000 C   0  0  0  0  0  0  0  0  0  0  0  0
   -3.6710    3.2710    0.0000 C   0  0  0  0  0  0  0  0  0  0  0  0
   -4.7210    2.2780    0.0000 C   0  0  1  0  0  0  0  0  0  0  0  0
   -4.4840    3.0760    0.0000 C   0  0  2  0  0  0  0  0  0  0  0  0
   -5.1690    3.5470    0.0000 O   0  0  0  0  0  0  0  0  0  0  0  0
   -5.8300    3.0420    0.0000 C   0  0  0  0  0  0  0  0  0  0  0  0
   -5.5530    2.2570    0.0000 C   0  0  0  0  0  0  0  0  0  0  0  0
    0.3530    2.1070    0.0000 C   0  0  0  0  0  0  0  0  0  0  0  0
    0.9410    1.5280    0.0000 C   0  0  0  0  0  0  0  0  0  0  0  0
    1.7350    1.7490    0.0000 C   0  0  0  0  0  0  0  0  0  0  0  0
    1.9410    2.5490    0.0000 C   0  0  0  0  0  0  0  0  0  0  0  0
    1.3470    3.1280    0.0000 C   0  0  0  0  0  0  0  0  0  0  0  0
    0.5560    2.9040    0.0000 C   0  0  0  0  0  0  0  0  0  0  0  0
    2.7360    2.7710    0.0000 C   0  0  0  0  0  0  0  0  0  0  0  0
    3.3260    2.1940    0.0000 F   0  0  0  0  0  0  0  0  0  0  0  0
    2.9410    3.5700    0.0000 F   0  0  0  0  0  0  0  0  0  0  0  0
    2.7450    1.9460    0.0000 F   0  0  0  0  0  0  0  0  0  0  0  0
   -4.3010    4.0590    0.0000 H   0  0  0  0  0  0  0  0  0  0  0  0
   -5.1020    1.3540    0.0000 H   0  0  0  0  0  0  0  0  0  0  0  0
 14  1  1  6  0  0  0
  1  2  1  0  0  0  0
  1  3  2  0  0  0  0
  2  4  1  0  0  0  0
 15  5  1  0  0  0  0
  5  6  1  0  0  0  0
  5  7  2  0  0  0  0
  5  8  2  0  0  0  0
  6  9  2  0  0  0  0
  9 10  1  0  0  0  0
 10 11  2  0  0  0  0
 11 12  1  0  0  0  0
 12 13  2  0  0  0  0
 13  6  1  0  0  0  0
 14 15  1  0  0  0  0
 14 18  1  0  0  0  0
 15 16  1  0  0  0  0
 16 17  1  0  0  0  0
 17 19  1  0  0  0  0
 18 19  1  0  0  0  0
 19 20  1  0  0  0  0
 20 21  1  0  0  0  0
 21 22  1  0  0  0  0
 22 18  1  0  0  0  0
 11 23  1  0  0  0  0
 23 24  2  0  0  0  0
 24 25  1  0  0  0  0
 25 26  2  0  0  0  0
 26 27  1  0  0  0  0
 27 28  2  0  0  0  0
 28 23  1  0  0  0  0
 26 29  1  0  0  0  0
 29 30  1  0  0  0  0
 29 31  1  0  0  0  0
 29 32  1  0  0  0  0
 19 33  1  1  0  0  0
 18 34  1  1  0  0  0
M  END
>  <ID_NEW>
CPDMM2234

>  <pIC50>
6.162350966761915

$$$$

  -MTS-   10172316422D 0   0.00000     0.00000     0

 35 39  0  0  1  0  0  0  0  0999 V2000
   -5.7050    2.6540    0.0000 C   0  0  0  0  0  0  0  0  0  0  0  0
   -5.7070    2.0560    0.0000 C   0  0  0  0  0  0  0  0  0  0  0  0
   -5.1580    1.7600    0.0000 C   0  0  0  0  0  0  0  0  0  0  0  0
   -5.1600    2.9540    0.0000 C   0  0  0  0  0  0  0  0  0  0  0  0
   -4.6120    2.6580    0.0000 C   0  0  0  0  0  0  0  0  0  0  0  0
   -4.6120    2.0580    0.0000 C   0  0  0  0  0  0  0  0  0  0  0  0
   -4.0640    1.7590    0.0000 C   0  0  0  0  0  0  0  0  0  0  0  0
   -3.5140    2.0560    0.0000 N   0  0  0  0  0  0  0  0  0  0  0  0
   -3.5140    2.6550    0.0000 C   0  0  2  0  0  0  0  0  0  0  0  0
   -4.0630    2.9550    0.0000 C   0  0  0  0  0  0  0  0  0  0  0  0
   -2.9590    2.9580    0.0000 C   0  0  0  0  0  0  0  0  0  0  0  0
   -2.4140    2.6470    0.0000 N   0  0  0  0  0  0  0  0  0  0  0  0
   -2.9570    3.5490    0.0000 O   0  0  0  0  0  0  0  0  0  0  0  0
   -2.9610    1.7580    0.0000 S   0  0  0  0  0  0  0  0  0  0  0  0
   -2.4050    1.4580    0.0000 C   0  0  0  0  0  0  0  0  0  0  0  0
   -2.6370    2.2760    0.0000 O   0  0  0  0  0  0  0  0  0  0  0  0
   -3.2800    1.2340    0.0000 O   0  0  0  0  0  0  0  0  0  0  0  0
   -2.4060    0.8460    0.0000 C   0  0  0  0  0  0  0  0  0  0  0  0
   -1.8540    0.5420    0.0000 C   0  0  0  0  0  0  0  0  0  0  0  0
   -1.2940    0.8410    0.0000 C   0  0  0  0  0  0  0  0  0  0  0  0
   -1.2940    1.4570    0.0000 C   0  0  0  0  0  0  0  0  0  0  0  0
   -1.8500    1.7530    0.0000 C   0  0  0  0  0  0  0  0  0  0  0  0
   -0.7430    0.5430    0.0000 N   0  0  0  0  0  0  0  0  0  0  0  0
   -0.7540   -0.0460    0.0000 C   0  0  0  0  0  0  0  0  0  0  0  0
   -0.2070   -0.3520    0.0000 C   0  0  0  0  0  0  0  0  0  0  0  0
    0.3440   -0.0570    0.0000 N   0  0  0  0  0  0  0  0  0  0  0  0
    0.3480    0.5400    0.0000 C   0  0  0  0  0  0  0  0  0  0  0  0
   -0.2080    0.8410    0.0000 C   0  0  0  0  0  0  0  0  0  0  0  0
    0.8890   -0.3610    0.0000 C   0  0  0  0  0  0  0  0  0  0  0  0
    0.8910   -0.9740    0.0000 N   0  0  0  0  0  0  0  0  0  0  0  0
    1.4400   -1.2740    0.0000 C   0  0  0  0  0  0  0  0  0  0  0  0
    1.9850   -0.9640    0.0000 C   0  0  0  0  0  0  0  0  0  0  0  0
    1.9810   -0.3460    0.0000 C   0  0  0  0  0  0  0  0  0  0  0  0
    1.4270   -0.0490    0.0000 N   0  0  0  0  0  0  0  0  0  0  0  0
   -1.8730    2.9690    0.0000 O   0  0  0  0  0  0  0  0  0  0  0  0
 21 22  2  0  0  0  0
 22 15  1  0  0  0  0
  5  6  1  0  0  0  0
 20 23  1  0  0  0  0
 23 24  1  0  0  0  0
  9 11  1  6  0  0  0
 11 12  1  0  0  0  0
  2  3  1  0  0  0  0
 11 13  2  0  0  0  0
 23 28  1  0  0  0  0
 24 25  1  0  0  0  0
 25 26  1  0  0  0  0
 26 27  1  0  0  0  0
 27 28  1  0  0  0  0
  3  6  2  0  0  0  0
 26 29  1  0  0  0  0
  8 14  1  0  0  0  0
  1  2  2  0  0  0  0
 14 15  1  0  0  0  0
  5  4  2  0  0  0  0
 14 16  2  0  0  0  0
  4  1  1  0  0  0  0
 14 17  2  0  0  0  0
  5 10  1  0  0  0  0
 15 18  2  0  0  0  0
  6  7  1  0  0  0  0
 18 19  1  0  0  0  0
 29 30  2  0  0  0  0
  7  8  1  0  0  0  0
 30 31  1  0  0  0  0
 19 20  2  0  0  0  0
 31 32  2  0  0  0  0
  8  9  1  0  0  0  0
 32 33  1  0  0  0  0
 20 21  1  0  0  0  0
 33 34  2  0  0  0  0
 34 29  1  0  0  0  0
  9 10  1  0  0  0  0
 12 35  1  0  0  0  0
M  END
>  <ID_NEW>
CPDMM2235

>  <pIC50>
6.154901959985743

$$$$

  -MTS-   10172316422D 0   0.00000     0.00000     0

 35 38  0  0  1  0  0  0  0  0999 V2000
   -5.7060    2.7420    0.0000 C   0  0  0  0  0  0  0  0  0  0  0  0
   -5.7070    2.2100    0.0000 C   0  0  0  0  0  0  0  0  0  0  0  0
   -5.2380    1.9390    0.0000 C   0  0  0  0  0  0  0  0  0  0  0  0
   -5.2400    3.0130    0.0000 C   0  0  0  0  0  0  0  0  0  0  0  0
   -4.7780    2.7450    0.0000 C   0  0  0  0  0  0  0  0  0  0  0  0
   -4.7790    2.2120    0.0000 C   0  0  0  0  0  0  0  0  0  0  0  0
   -4.3140    1.9380    0.0000 C   0  0  0  0  0  0  0  0  0  0  0  0
   -3.8480    2.2100    0.0000 N   0  0  0  0  0  0  0  0  0  0  0  0
   -3.8470    2.7430    0.0000 C   0  0  2  0  0  0  0  0  0  0  0  0
   -4.3130    3.0130    0.0000 C   0  0  0  0  0  0  0  0  0  0  0  0
   -3.3760    3.0160    0.0000 C   0  0  0  0  0  0  0  0  0  0  0  0
   -3.3780    3.5490    0.0000 O   0  0  0  0  0  0  0  0  0  0  0  0
   -3.3780    1.9370    0.0000 S   0  0  0  0  0  0  0  0  0  0  0  0
   -3.1060    2.4050    0.0000 O   0  0  0  0  0  0  0  0  0  0  0  0
   -3.6510    1.4640    0.0000 O   0  0  0  0  0  0  0  0  0  0  0  0
   -2.9140    1.6690    0.0000 C   0  0  0  0  0  0  0  0  0  0  0  0
   -2.9150    1.1320    0.0000 C   0  0  0  0  0  0  0  0  0  0  0  0
   -2.4510    0.8600    0.0000 C   0  0  0  0  0  0  0  0  0  0  0  0
   -2.4530    0.3280    0.0000 C   0  0  0  0  0  0  0  0  0  0  0  0
   -1.9860    0.0570    0.0000 C   0  0  0  0  0  0  0  0  0  0  0  0
   -1.5240    0.3270    0.0000 C   0  0  0  0  0  0  0  0  0  0  0  0
   -1.5220    0.8640    0.0000 C   0  0  0  0  0  0  0  0  0  0  0  0
   -1.9860    1.1320    0.0000 C   0  0  0  0  0  0  0  0  0  0  0  0
   -2.9120    2.7440    0.0000 O   0  0  0  0  0  0  0  0  0  0  0  0
   -1.0560    0.0560    0.0000 C   0  0  0  0  0  0  0  0  0  0  0  0
   -1.0610   -0.4800    0.0000 C   0  0  0  0  0  0  0  0  0  0  0  0
   -0.5970   -0.7460    0.0000 C   0  0  0  0  0  0  0  0  0  0  0  0
   -0.1320   -0.4800    0.0000 C   0  0  0  0  0  0  0  0  0  0  0  0
   -0.1300    0.0620    0.0000 C   0  0  0  0  0  0  0  0  0  0  0  0
   -0.5990    0.3290    0.0000 C   0  0  0  0  0  0  0  0  0  0  0  0
    0.3380   -0.7450    0.0000 C   0  0  0  0  0  0  0  0  0  0  0  0
    0.3390   -1.2820    0.0000 O   0  0  0  0  0  0  0  0  0  0  0  0
    0.7970   -0.4770    0.0000 N   0  0  0  0  0  0  0  0  0  0  0  0
    1.2670   -0.7420    0.0000 C   0  0  0  0  0  0  0  0  0  0  0  0
    0.7960    0.0600    0.0000 C   0  0  0  0  0  0  0  0  0  0  0  0
  5 10  1  0  0  0  0
 17 18  1  0  0  0  0
  6  7  1  0  0  0  0
 18 19  2  0  0  0  0
  7  8  1  0  0  0  0
 19 20  1  0  0  0  0
  8  9  1  0  0  0  0
 20 21  2  0  0  0  0
  9 10  1  0  0  0  0
 21 22  1  0  0  0  0
  5  6  1  0  0  0  0
 22 23  2  0  0  0  0
 23 18  1  0  0  0  0
  9 11  1  6  0  0  0
 11 24  1  0  0  0  0
 11 12  2  0  0  0  0
 21 25  1  0  0  0  0
  2  3  1  0  0  0  0
 25 26  2  0  0  0  0
  8 13  1  0  0  0  0
 26 27  1  0  0  0  0
  3  6  2  0  0  0  0
 27 28  2  0  0  0  0
 13 14  2  0  0  0  0
 28 29  1  0  0  0  0
  1  2  2  0  0  0  0
 29 30  2  0  0  0  0
 30 25  1  0  0  0  0
 13 15  2  0  0  0  0
 28 31  1  0  0  0  0
  5  4  2  0  0  0  0
 31 32  2  0  0  0  0
 13 16  1  0  0  0  0
 31 33  1  0  0  0  0
  4  1  1  0  0  0  0
 33 34  1  0  0  0  0
 16 17  1  0  0  0  0
 33 35  1  0  0  0  0
M  END
>  <ID_NEW>
CPDMM2236

>  <pIC50>
6.154901959985743

$$$$

  -MTS-   10172316422D 0   0.00000     0.00000     0

 36 39  0  0  1  0  0  0  0  0999 V2000
   -5.8300    2.9170    0.0000 C   0  0  0  0  0  0  0  0  0  0  0  0
   -5.8320    2.3310    0.0000 C   0  0  0  0  0  0  0  0  0  0  0  0
   -5.3250    2.0430    0.0000 C   0  0  0  0  0  0  0  0  0  0  0  0
   -5.3270    3.2090    0.0000 C   0  0  0  0  0  0  0  0  0  0  0  0
   -4.8280    2.9200    0.0000 C   0  0  0  0  0  0  0  0  0  0  0  0
   -4.8210    2.3330    0.0000 C   0  0  0  0  0  0  0  0  0  0  0  0
   -4.3140    2.0430    0.0000 C   0  0  0  0  0  0  0  0  0  0  0  0
   -3.8060    2.3390    0.0000 N   0  0  0  0  0  0  0  0  0  0  0  0
   -3.8100    2.9220    0.0000 C   0  0  2  0  0  0  0  0  0  0  0  0
   -4.3210    3.2130    0.0000 C   0  0  0  0  0  0  0  0  0  0  0  0
   -3.3050    3.2160    0.0000 C   0  0  0  0  0  0  0  0  0  0  0  0
   -3.3070    3.7970    0.0000 O   0  0  0  0  0  0  0  0  0  0  0  0
   -3.3030    2.0490    0.0000 S   0  0  0  0  0  0  0  0  0  0  0  0
   -2.7460    2.1960    0.0000 C   0  0  0  0  0  0  0  0  0  0  0  0
   -3.7210    1.6330    0.0000 O   0  0  0  0  0  0  0  0  0  0  0  0
   -3.0170    1.5420    0.0000 O   0  0  0  0  0  0  0  0  0  0  0  0
   -2.3320    1.7880    0.0000 C   0  0  0  0  0  0  0  0  0  0  0  0
   -1.7710    1.9430    0.0000 C   0  0  0  0  0  0  0  0  0  0  0  0
   -1.6200    2.5030    0.0000 C   0  0  0  0  0  0  0  0  0  0  0  0
   -2.0440    2.9130    0.0000 C   0  0  0  0  0  0  0  0  0  0  0  0
   -2.5980    2.7560    0.0000 C   0  0  0  0  0  0  0  0  0  0  0  0
   -1.0660    2.6590    0.0000 C   0  0  0  0  0  0  0  0  0  0  0  0
   -0.6540    2.2500    0.0000 C   0  0  0  0  0  0  0  0  0  0  0  0
   -0.0920    2.4050    0.0000 C   0  0  0  0  0  0  0  0  0  0  0  0
    0.0540    2.9630    0.0000 C   0  0  0  0  0  0  0  0  0  0  0  0
   -0.3630    3.3730    0.0000 C   0  0  0  0  0  0  0  0  0  0  0  0
   -0.9220    3.2140    0.0000 C   0  0  0  0  0  0  0  0  0  0  0  0
    0.6120    3.1200    0.0000 S   0  0  0  0  0  0  0  0  0  0  0  0
    1.1670    2.9710    0.0000 N   0  0  0  0  0  0  0  0  0  0  0  0
    0.9000    3.6250    0.0000 O   0  0  0  0  0  0  0  0  0  0  0  0
    0.3170    3.6250    0.0000 O   0  0  0  0  0  0  0  0  0  0  0  0
    1.3220    2.4120    0.0000 C   0  0  0  0  0  0  0  0  0  0  0  0
    1.8860    2.2570    0.0000 C   0  0  0  0  0  0  0  0  0  0  0  0
    0.9100    1.9990    0.0000 C   0  0  0  0  0  0  0  0  0  0  0  0
   -2.8130    2.9340    0.0000 N   0  0  0  0  0  0  0  0  0  0  0  0
   -2.3230    3.2190    0.0000 O   0  0  0  0  0  0  0  0  0  0  0  0
  5 10  1  0  0  0  0
 13 16  2  0  0  0  0
  6  7  1  0  0  0  0
 14 17  2  0  0  0  0
  7  8  1  0  0  0  0
 17 18  1  0  0  0  0
  8  9  1  0  0  0  0
 18 19  2  0  0  0  0
  9 10  1  0  0  0  0
 19 20  1  0  0  0  0
  5  6  1  0  0  0  0
 20 21  2  0  0  0  0
 21 14  1  0  0  0  0
  9 11  1  6  0  0  0
 19 22  1  0  0  0  0
 22 23  2  0  0  0  0
  2  3  1  0  0  0  0
 23 24  1  0  0  0  0
 24 25  2  0  0  0  0
 11 12  2  0  0  0  0
 25 26  1  0  0  0  0
  3  6  2  0  0  0  0
 26 27  2  0  0  0  0
 27 22  1  0  0  0  0
 25 28  1  0  0  0  0
  1  2  2  0  0  0  0
 28 29  1  0  0  0  0
  8 13  1  0  0  0  0
 28 30  2  0  0  0  0
  5  4  2  0  0  0  0
 28 31  2  0  0  0  0
 13 14  1  0  0  0  0
 29 32  1  0  0  0  0
  4  1  1  0  0  0  0
 32 33  1  0  0  0  0
 13 15  2  0  0  0  0
 32 34  1  0  0  0  0
 11 35  1  0  0  0  0
 35 36  1  0  0  0  0
M  END
>  <ID_NEW>
CPDMM2237

>  <pIC50>
6.154901959985743

$$$$

  -MTS-   10172316422D 0   0.00000     0.00000     0

 38 41  0  0  1  0  0  0  0  0999 V2000
    0.6250   -4.5360    0.0000 C   0  0  0  0  0  0  0  0  0  0  0  0
   -0.1610   -4.7850    0.0000 N   0  0  0  0  0  0  0  0  0  0  0  0
    1.2340   -5.0930    0.0000 O   0  0  0  0  0  0  0  0  0  0  0  0
   -0.3390   -5.5900    0.0000 O   0  0  0  0  0  0  0  0  0  0  0  0
    2.1330   -4.1820    0.0000 S   0  0  0  0  0  0  0  0  0  0  0  0
    2.9250   -3.9620    0.0000 C   0  0  0  0  0  0  0  0  0  0  0  0
    1.3290   -4.3920    0.0000 O   0  0  0  0  0  0  0  0  0  0  0  0
    2.1250   -5.0040    0.0000 O   0  0  0  0  0  0  0  0  0  0  0  0
    3.5100   -4.5420    0.0000 C   0  0  0  0  0  0  0  0  0  0  0  0
    4.3010   -4.3230    0.0000 C   0  0  0  0  0  0  0  0  0  0  0  0
    4.5080   -3.5260    0.0000 C   0  0  0  0  0  0  0  0  0  0  0  0
    3.9170   -2.9490    0.0000 C   0  0  0  0  0  0  0  0  0  0  0  0
    3.1280   -3.1710    0.0000 C   0  0  0  0  0  0  0  0  0  0  0  0
    5.3030   -3.3050    0.0000 O   0  0  0  0  0  0  0  0  0  0  0  0
    5.8920   -3.8830    0.0000 C   0  0  0  0  0  0  0  0  0  0  0  0
    5.6840   -4.6790    0.0000 C   0  0  0  0  0  0  0  0  0  0  0  0
    6.2720   -5.2560    0.0000 C   0  0  0  0  0  0  0  0  0  0  0  0
    7.0680   -5.0350    0.0000 C   0  0  0  0  0  0  0  0  0  0  0  0
    7.2720   -4.2310    0.0000 C   0  0  0  0  0  0  0  0  0  0  0  0
    6.6820   -3.6570    0.0000 C   0  0  0  0  0  0  0  0  0  0  0  0
    0.8030   -3.7350    0.0000 C   0  0  1  0  0  0  0  0  0  0  0  0
    1.6130   -3.5410    0.0000 N   0  0  0  0  0  0  0  0  0  0  0  0
    1.8490   -2.7480    0.0000 C   0  0  0  0  0  0  0  0  0  0  0  0
    1.2790   -2.1420    0.0000 C   0  0  0  0  0  0  0  0  0  0  0  0
    0.2290   -3.1350    0.0000 C   0  0  1  0  0  0  0  0  0  0  0  0
    0.4660   -2.3370    0.0000 C   0  0  2  0  0  0  0  0  0  0  0  0
   -0.1040   -1.7350    0.0000 C   0  0  0  0  0  0  0  0  0  0  0  0
   -0.9140   -1.9270    0.0000 C   0  0  0  0  0  0  0  0  0  0  0  0
   -1.1510   -2.7250    0.0000 C   0  0  0  0  0  0  0  0  0  0  0  0
   -0.5780   -3.3330    0.0000 C   0  0  0  0  0  0  0  0  0  0  0  0
    7.6570   -5.6120    0.0000 S   0  0  0  0  0  0  0  0  0  0  0  0
    7.4530   -6.4110    0.0000 F   0  0  0  0  0  0  0  0  0  0  0  0
    8.4520   -5.3900    0.0000 F   0  0  0  0  0  0  0  0  0  0  0  0
    6.9470   -6.0320    0.0000 F   0  0  0  0  0  0  0  0  0  0  0  0
    8.2370   -6.1920    0.0000 F   0  0  0  0  0  0  0  0  0  0  0  0
    7.6500   -4.7830    0.0000 F   0  0  0  0  0  0  0  0  0  0  0  0
    0.7510   -1.3780    0.0000 H   0  0  0  0  0  0  0  0  0  0  0  0
   -0.0510   -4.0950    0.0000 H   0  0  0  0  0  0  0  0  0  0  0  0
 21  1  1  6  0  0  0
  1  2  1  0  0  0  0
  1  3  2  0  0  0  0
  2  4  1  0  0  0  0
 22  5  1  0  0  0  0
  5  6  1  0  0  0  0
  5  7  2  0  0  0  0
  5  8  2  0  0  0  0
  6  9  2  0  0  0  0
  9 10  1  0  0  0  0
 10 11  2  0  0  0  0
 11 12  1  0  0  0  0
 12 13  2  0  0  0  0
 13  6  1  0  0  0  0
 11 14  1  0  0  0  0
 14 15  1  0  0  0  0
 15 16  2  0  0  0  0
 16 17  1  0  0  0  0
 17 18  2  0  0  0  0
 18 19  1  0  0  0  0
 19 20  2  0  0  0  0
 20 15  1  0  0  0  0
 21 22  1  0  0  0  0
 21 25  1  0  0  0  0
 22 23  1  0  0  0  0
 23 24  1  0  0  0  0
 24 26  1  0  0  0  0
 25 26  1  0  0  0  0
 25 30  1  0  0  0  0
 26 27  1  0  0  0  0
 27 28  1  0  0  0  0
 28 29  1  0  0  0  0
 29 30  1  0  0  0  0
 18 31  1  0  0  0  0
 31 32  1  0  0  0  0
 31 33  1  0  0  0  0
 31 34  1  0  0  0  0
 31 35  1  0  0  0  0
 31 36  1  0  0  0  0
 26 37  1  1  0  0  0
 25 38  1  1  0  0  0
M  END
>  <ID_NEW>
CPDMM2238

>  <pIC50>
6.087333776323579

$$$$

  -MTS-   10172316422D 0   0.00000     0.00000     0

 31 34  0  0  1  0  0  0  0  0999 V2000
    1.2520   -0.0360    0.0000 N   0  0  0  0  0  0  0  0  0  0  0  0
    1.4000   -0.5620    0.0000 S   0  0  0  0  0  0  0  0  0  0  0  0
    1.5830    0.4120    0.0000 C   0  0  2  0  0  0  0  0  0  0  0  0
    0.7040    0.1370    0.0000 C   0  0  1  0  0  0  0  0  0  0  0  0
    1.2420    0.8600    0.0000 C   0  0  0  0  0  0  0  0  0  0  0  0
    1.5370   -1.0870    0.0000 C   0  0  0  0  0  0  0  0  0  0  0  0
    0.7000    0.6880    0.0000 C   0  0  1  0  0  0  0  0  0  0  0  0
    0.8420   -0.7040    0.0000 O   0  0  0  0  0  0  0  0  0  0  0  0
    1.9370   -0.4170    0.0000 O   0  0  0  0  0  0  0  0  0  0  0  0
    2.2760   -3.7360    0.0000 C   0  0  0  0  0  0  0  0  0  0  0  0
    1.8390   -2.1490    0.0000 C   0  0  0  0  0  0  0  0  0  0  0  0
    1.9780   -2.6820    0.0000 C   0  0  0  0  0  0  0  0  0  0  0  0
    1.1430   -1.4770    0.0000 C   0  0  0  0  0  0  0  0  0  0  0  0
    2.0920   -1.2360    0.0000 C   0  0  0  0  0  0  0  0  0  0  0  0
    2.6800   -3.3470    0.0000 C   0  0  0  0  0  0  0  0  0  0  0  0
    1.7250   -3.5980    0.0000 C   0  0  0  0  0  0  0  0  0  0  0  0
    1.5740   -3.0660    0.0000 C   0  0  0  0  0  0  0  0  0  0  0  0
    1.2890   -2.0050    0.0000 C   0  0  0  0  0  0  0  0  0  0  0  0
    2.5260   -2.8170    0.0000 C   0  0  0  0  0  0  0  0  0  0  0  0
    2.2400   -1.7660    0.0000 C   0  0  0  0  0  0  0  0  0  0  0  0
    0.1670   -0.0330    0.0000 C   0  0  0  0  0  0  0  0  0  0  0  0
    0.1600    0.8510    0.0000 C   0  0  0  0  0  0  0  0  0  0  0  0
   -0.1670    0.4060    0.0000 C   0  0  0  0  0  0  0  0  0  0  0  0
    2.1540    0.4120    0.0000 C   0  0  0  0  0  0  0  0  0  0  0  0
    2.4400   -0.0820    0.0000 O   0  0  0  0  0  0  0  0  0  0  0  0
    2.4390    0.9080    0.0000 O   0  0  0  0  0  0  0  0  0  0  0  0
    2.4210   -4.2790    0.0000 N   0  3  0  0  0  0  0  0  0  0  0  0
    2.0220   -4.6760    0.0000 O   0  5  0  0  0  0  0  0  0  0  0  0
    2.9640   -4.4260    0.0000 O   0  0  0  0  0  0  0  0  0  0  0  0
    0.6930    1.6880    0.0000 H   0  0  0  0  0  0  0  0  0  0  0  0
    0.7040   -0.8620    0.0000 H   0  0  0  0  0  0  0  0  0  0  0  0
 17 16  1  0  0  0  0
 16 10  2  0  0  0  0
 10 15  1  0  0  0  0
 15 19  2  0  0  0  0
 19 12  1  0  0  0  0
 10 27  1  0  0  0  0
  7 22  1  0  0  0  0
 22 23  1  0  0  0  0
 23 21  1  0  0  0  0
 21  4  1  0  0  0  0
  7  4  1  0  0  0  0
  4  1  1  0  0  0  0
  1  3  1  0  0  0  0
  3  5  1  0  0  0  0
  5  7  1  0  0  0  0
  3 24  1  6  0  0  0
  1  2  1  0  0  0  0
  2  8  2  0  0  0  0
  2  9  2  0  0  0  0
  2  6  1  0  0  0  0
  6 13  2  0  0  0  0
 13 18  1  0  0  0  0
 18 11  2  0  0  0  0
 11 20  1  0  0  0  0
 20 14  2  0  0  0  0
 24 25  1  0  0  0  0
 24 26  2  0  0  0  0
 14  6  1  0  0  0  0
 11 12  1  0  0  0  0
 12 17  2  0  0  0  0
 27 28  1  0  0  0  0
 27 29  2  0  0  0  0
  7 30  1  1  0  0  0
  4 31  1  1  0  0  0
M  CHG  2  27   1  28  -1
M  END
>  <ID_NEW>
CPDMM2239

>  <pIC50>
6.0584199999657375

$$$$

  -MTS-   10172316422D 0   0.00000     0.00000     0

 34 37  0  0  1  0  0  0  0  0999 V2000
   -4.4010    3.3870    0.0000 C   0  0  0  0  0  0  0  0  0  0  0  0
   -4.4030    2.5600    0.0000 C   0  0  0  0  0  0  0  0  0  0  0  0
   -3.6880    2.1470    0.0000 C   0  0  0  0  0  0  0  0  0  0  0  0
   -3.6900    3.8000    0.0000 C   0  0  0  0  0  0  0  0  0  0  0  0
   -2.9740    3.3910    0.0000 C   0  0  0  0  0  0  0  0  0  0  0  0
   -2.9710    2.5580    0.0000 C   0  0  0  0  0  0  0  0  0  0  0  0
   -2.2520    2.1470    0.0000 C   0  0  2  0  0  0  0  0  0  0  0  0
   -1.5310    2.5640    0.0000 N   0  0  0  0  0  0  0  0  0  0  0  0
   -1.5350    3.3970    0.0000 C   0  0  0  0  0  0  0  0  0  0  0  0
   -2.2580    3.8130    0.0000 C   0  0  0  0  0  0  0  0  0  0  0  0
   -5.1160    3.8000    0.0000 O   0  0  0  0  0  0  0  0  0  0  0  0
   -5.8300    3.3870    0.0000 C   0  0  0  0  0  0  0  0  0  0  0  0
   -2.2490    1.3220    0.0000 C   0  0  0  0  0  0  0  0  0  0  0  0
   -2.9610    0.9040    0.0000 N   0  0  0  0  0  0  0  0  0  0  0  0
   -1.5320    0.9070    0.0000 O   0  0  0  0  0  0  0  0  0  0  0  0
   -0.8160    2.1530    0.0000 S   0  0  0  0  0  0  0  0  0  0  0  0
   -0.4710    2.9030    0.0000 O   0  0  0  0  0  0  0  0  0  0  0  0
   -1.1680    1.4070    0.0000 O   0  0  0  0  0  0  0  0  0  0  0  0
    0.6140    2.2440    0.0000 C   0  0  0  0  0  0  0  0  0  0  0  0
   -0.0750    1.7860    0.0000 C   0  0  0  0  0  0  0  0  0  0  0  0
   -0.0230    0.9620    0.0000 C   0  0  0  0  0  0  0  0  0  0  0  0
    0.7180    0.5950    0.0000 C   0  0  0  0  0  0  0  0  0  0  0  0
    1.4080    1.0570    0.0000 C   0  0  0  0  0  0  0  0  0  0  0  0
    1.3520    1.8800    0.0000 C   0  0  0  0  0  0  0  0  0  0  0  0
    2.1490    0.6940    0.0000 O   0  0  0  0  0  0  0  0  0  0  0  0
    2.9260    0.9750    0.0000 C   0  0  0  0  0  0  0  0  0  0  0  0
    3.5580    0.4400    0.0000 C   0  0  0  0  0  0  0  0  0  0  0  0
    4.3360    0.7210    0.0000 C   0  0  0  0  0  0  0  0  0  0  0  0
    4.4810    1.5360    0.0000 C   0  0  0  0  0  0  0  0  0  0  0  0
    3.8440    2.0700    0.0000 C   0  0  0  0  0  0  0  0  0  0  0  0
    3.0690    1.7860    0.0000 C   0  0  0  0  0  0  0  0  0  0  0  0
    5.2570    1.8180    0.0000 C   0  0  0  0  0  0  0  0  0  0  0  0
    6.0270    2.1020    0.0000 N   0  0  0  0  0  0  0  0  0  0  0  0
   -2.9670    0.0790    0.0000 O   0  0  0  0  0  0  0  0  0  0  0  0
  1  2  2  0  0  0  0
  2  3  1  0  0  0  0
  3  6  2  0  0  0  0
  5  4  2  0  0  0  0
  4  1  1  0  0  0  0
  5  6  1  0  0  0  0
  5 10  1  0  0  0  0
  6  7  1  0  0  0  0
  7  8  1  0  0  0  0
  8  9  1  0  0  0  0
  9 10  1  0  0  0  0
  1 11  1  0  0  0  0
 11 12  1  0  0  0  0
  7 13  1  6  0  0  0
 13 14  1  0  0  0  0
 13 15  2  0  0  0  0
  8 16  1  0  0  0  0
 16 17  2  0  0  0  0
 16 18  2  0  0  0  0
 19 20  2  0  0  0  0
 20 21  1  0  0  0  0
 21 22  2  0  0  0  0
 22 23  1  0  0  0  0
 23 24  2  0  0  0  0
 24 19  1  0  0  0  0
 23 25  1  0  0  0  0
 25 26  1  0  0  0  0
 26 27  2  0  0  0  0
 27 28  1  0  0  0  0
 28 29  2  0  0  0  0
 29 30  1  0  0  0  0
 30 31  2  0  0  0  0
 31 26  1  0  0  0  0
 29 32  1  0  0  0  0
 32 33  3  0  0  0  0
 20 16  1  0  0  0  0
 14 34  1  0  0  0  0
M  END
>  <ID_NEW>
CPDMM2240

>  <pIC50>
6.008052177425138

$$$$

  SciTegic12180812592D

 32 35  0  0  0  0            999 V2000
    2.0508    2.5618    0.0000 C   0  0
    1.3461    2.9849    0.0000 O   0  0
    2.0473    1.7468    0.0000 C   0  0
    2.7657    2.9803    0.0000 C   0  0
    0.6206    2.5742    0.0000 C   0  0
    2.7695    1.3362    0.0000 C   0  0
    3.4937    2.5658    0.0000 C   0  0
   -0.0969    2.9906    0.0000 C   0  0
    0.6215    1.7511    0.0000 C   0  0
    3.4840    1.7478    0.0000 C   0  0
   -0.8151    2.5758    0.0000 C   0  0
   -0.0970    1.3399    0.0000 C   0  0
   -0.8185    1.7608    0.0000 C   0  0
   -5.0973    2.5959    0.0000 C   0  0
   -5.0984    1.7685    0.0000 C   0  0
   -4.3836    1.3556    0.0000 C   0  0
   -4.3854    3.0086    0.0000 C   0  0
   -3.6664    2.5955    0.0000 C   0  0
   -3.6693    1.7727    0.0000 C   0  0
   -2.9620    1.3610    0.0000 C   0  0
   -2.2474    1.7677    0.0000 N   0  0
   -2.2445    2.5905    0.0000 C   0  0
   -2.9563    3.0067    0.0000 C   0  0
   -2.9661    0.5361    0.0000 C   0  0
   -3.6805    0.1245    0.0000 O   0  0
   -2.2516    0.1176    0.0000 O   0  0
   -5.8118    3.0082    0.0000 O   0  0
   -5.8120    3.8332    0.0000 C   0  0
   -1.5349    1.3517    0.0000 S   0  0
   -0.9542    0.7708    0.0000 O   0  0
   -2.1250    0.7708    0.0000 O   0  0
    4.1958    1.3307    0.0000 F   0  0
  1  2  1  0
  1  3  1  0
  1  4  2  0
  2  5  1  0
  3  6  2  0
  4  7  1  0
  5  8  2  0
  5  9  1  0
  6 10  1  0
  8 11  1  0
  9 12  2  0
 11 13  2  0
  7 10  2  0
 12 13  1  0
 14 15  1  0
 15 16  1  0
 16 19  1  0
 18 17  1  0
 17 14  1  0
 18 19  1  0
 18 23  1  0
 19 20  1  0
 20 21  1  0
 21 22  1  0
 22 23  1  0
 20 24  1  0
 24 25  1  0
 24 26  2  0
 14 27  1  0
 27 28  1  0
 21 29  1  0
 29 13  1  0
 29 30  2  0
 29 31  2  0
 10 32  1  0
M  END
>  <ID_NEW>
CPDMM2241

>  <pIC50>
6.004847625329039

$$$$

  -MTS-   10172316422D 0   0.00000     0.00000     0

 34 37  0  0  1  0  0  0  0  0999 V2000
   -2.9330    1.8210    0.0000 N   0  0  0  0  0  0  0  0  0  0  0  0
   -5.8310    2.9710    0.0000 C   0  0  0  0  0  0  0  0  0  0  0  0
   -5.8320    2.1430    0.0000 C   0  0  0  0  0  0  0  0  0  0  0  0
   -5.1170    1.7310    0.0000 C   0  0  0  0  0  0  0  0  0  0  0  0
   -5.1190    3.3840    0.0000 C   0  0  0  0  0  0  0  0  0  0  0  0
   -4.3980    2.1460    0.0000 C   0  0  2  0  0  0  0  0  0  0  0  0
   -4.4030    2.9740    0.0000 C   0  0  1  0  0  0  0  0  0  0  0  0
   -3.7560    3.5000    0.0000 C   0  0  0  0  0  0  0  0  0  0  0  0
   -3.7420    1.6320    0.0000 C   0  0  1  0  0  0  0  0  0  0  0  0
   -2.9440    3.3260    0.0000 C   0  0  0  0  0  0  0  0  0  0  0  0
   -2.5790    2.5800    0.0000 C   0  0  0  0  0  0  0  0  0  0  0  0
   -3.9200    0.8260    0.0000 C   0  0  0  0  0  0  0  0  0  0  0  0
   -4.7070    0.5780    0.0000 N   0  0  0  0  0  0  0  0  0  0  0  0
   -3.3120    0.2690    0.0000 O   0  0  0  0  0  0  0  0  0  0  0  0
   -4.8850   -0.2280    0.0000 O   0  0  0  0  0  0  0  0  0  0  0  0
   -2.4130    1.1810    0.0000 S   0  0  0  0  0  0  0  0  0  0  0  0
   -1.6210    1.4000    0.0000 C   0  0  0  0  0  0  0  0  0  0  0  0
   -3.2170    0.9710    0.0000 O   0  0  0  0  0  0  0  0  0  0  0  0
   -2.4210    0.3580    0.0000 O   0  0  0  0  0  0  0  0  0  0  0  0
   -1.0360    0.8210    0.0000 C   0  0  0  0  0  0  0  0  0  0  0  0
   -0.2450    1.0400    0.0000 C   0  0  0  0  0  0  0  0  0  0  0  0
   -0.0380    1.8360    0.0000 C   0  0  0  0  0  0  0  0  0  0  0  0
   -0.6290    2.4130    0.0000 C   0  0  0  0  0  0  0  0  0  0  0  0
   -1.4180    2.1920    0.0000 C   0  0  0  0  0  0  0  0  0  0  0  0
    0.7570    2.0570    0.0000 C   0  0  0  0  0  0  0  0  0  0  0  0
    1.3450    1.4780    0.0000 C   0  0  0  0  0  0  0  0  0  0  0  0
    2.1390    1.6990    0.0000 C   0  0  0  0  0  0  0  0  0  0  0  0
    2.3460    2.4990    0.0000 C   0  0  0  0  0  0  0  0  0  0  0  0
    1.7520    3.0780    0.0000 C   0  0  0  0  0  0  0  0  0  0  0  0
    0.9600    2.8540    0.0000 C   0  0  0  0  0  0  0  0  0  0  0  0
    3.1360    2.7240    0.0000 C   0  0  0  0  0  0  0  0  0  0  0  0
    3.9310    2.9470    0.0000 N   0  0  0  0  0  0  0  0  0  0  0  0
   -4.4850    3.9710    0.0000 H   0  0  0  0  0  0  0  0  0  0  0  0
   -4.4690    1.1490    0.0000 H   0  0  0  0  0  0  0  0  0  0  0  0
  2  3  1  0  0  0  0
  3  4  1  0  0  0  0
  4  6  1  0  0  0  0
  7  5  1  0  0  0  0
  5  2  1  0  0  0  0
  6  7  1  0  0  0  0
  7  8  1  0  0  0  0
  6  9  1  0  0  0  0
  8 10  1  0  0  0  0
  9  1  1  0  0  0  0
 10 11  1  0  0  0  0
  1 11  1  0  0  0  0
  9 12  1  6  0  0  0
 12 13  1  0  0  0  0
 12 14  2  0  0  0  0
 13 15  1  0  0  0  0
  1 16  1  0  0  0  0
 16 17  1  0  0  0  0
 16 18  2  0  0  0  0
 16 19  2  0  0  0  0
 17 20  2  0  0  0  0
 20 21  1  0  0  0  0
 21 22  2  0  0  0  0
 22 23  1  0  0  0  0
 23 24  2  0  0  0  0
 24 17  1  0  0  0  0
 22 25  1  0  0  0  0
 25 26  2  0  0  0  0
 26 27  1  0  0  0  0
 27 28  2  0  0  0  0
 28 29  1  0  0  0  0
 29 30  2  0  0  0  0
 30 25  1  0  0  0  0
 31 32  3  0  0  0  0
 28 31  1  0  0  0  0
  7 33  1  1  0  0  0
  6 34  1  1  0  0  0
M  END
>  <ID_NEW>
CPDMM2242

>  <pIC50>
6.000056461952753

$$$$

  -MTS-   10172316422D 0   0.00000     0.00000     0

 35 39  0  0  1  0  0  0  0  0999 V2000
   -5.7050    2.7210    0.0000 C   0  0  0  0  0  0  0  0  0  0  0  0
   -5.7070    2.1680    0.0000 C   0  0  0  0  0  0  0  0  0  0  0  0
   -5.1960    1.8930    0.0000 C   0  0  0  0  0  0  0  0  0  0  0  0
   -5.1980    3.0000    0.0000 C   0  0  0  0  0  0  0  0  0  0  0  0
   -4.6950    2.7240    0.0000 C   0  0  0  0  0  0  0  0  0  0  0  0
   -4.6960    2.1710    0.0000 C   0  0  0  0  0  0  0  0  0  0  0  0
   -4.1850    1.8930    0.0000 C   0  0  0  0  0  0  0  0  0  0  0  0
   -3.6770    2.1680    0.0000 N   0  0  0  0  0  0  0  0  0  0  0  0
   -3.6760    2.7220    0.0000 C   0  0  2  0  0  0  0  0  0  0  0  0
   -4.1830    3.0000    0.0000 C   0  0  0  0  0  0  0  0  0  0  0  0
   -3.1630    3.0030    0.0000 C   0  0  0  0  0  0  0  0  0  0  0  0
   -2.6560    2.7180    0.0000 N   0  0  0  0  0  0  0  0  0  0  0  0
   -3.1610    3.5490    0.0000 O   0  0  0  0  0  0  0  0  0  0  0  0
   -3.1660    1.8910    0.0000 S   0  0  0  0  0  0  0  0  0  0  0  0
   -2.6510    1.6120    0.0000 C   0  0  0  0  0  0  0  0  0  0  0  0
   -2.8710    2.3720    0.0000 O   0  0  0  0  0  0  0  0  0  0  0  0
   -3.4590    1.4050    0.0000 O   0  0  0  0  0  0  0  0  0  0  0  0
   -2.6520    1.0500    0.0000 C   0  0  0  0  0  0  0  0  0  0  0  0
   -2.1380    0.7660    0.0000 C   0  0  0  0  0  0  0  0  0  0  0  0
   -1.6190    1.0410    0.0000 C   0  0  0  0  0  0  0  0  0  0  0  0
   -1.6190    1.6110    0.0000 C   0  0  0  0  0  0  0  0  0  0  0  0
   -2.1330    1.8820    0.0000 C   0  0  0  0  0  0  0  0  0  0  0  0
   -1.1140    0.7640    0.0000 N   0  0  0  0  0  0  0  0  0  0  0  0
   -1.1210    0.2200    0.0000 C   0  0  0  0  0  0  0  0  0  0  0  0
   -0.6150   -0.0600    0.0000 C   0  0  0  0  0  0  0  0  0  0  0  0
   -0.1060    0.2140    0.0000 N   0  0  0  0  0  0  0  0  0  0  0  0
   -0.1020    0.7640    0.0000 C   0  0  0  0  0  0  0  0  0  0  0  0
   -0.6160    1.0410    0.0000 C   0  0  0  0  0  0  0  0  0  0  0  0
    0.3980   -0.0700    0.0000 C   0  0  0  0  0  0  0  0  0  0  0  0
    0.4000   -0.6370    0.0000 C   0  0  0  0  0  0  0  0  0  0  0  0
    0.9070   -0.9120    0.0000 C   0  0  0  0  0  0  0  0  0  0  0  0
    1.4140   -0.6310    0.0000 C   0  0  0  0  0  0  0  0  0  0  0  0
    1.4100   -0.0580    0.0000 C   0  0  0  0  0  0  0  0  0  0  0  0
    0.8980    0.2220    0.0000 N   0  0  0  0  0  0  0  0  0  0  0  0
   -2.1570    3.0110    0.0000 O   0  0  0  0  0  0  0  0  0  0  0  0
 21 22  2  0  0  0  0
 22 15  1  0  0  0  0
  5  6  1  0  0  0  0
 20 23  1  0  0  0  0
 23 24  1  0  0  0  0
  9 11  1  6  0  0  0
 11 12  1  0  0  0  0
  2  3  1  0  0  0  0
 11 13  2  0  0  0  0
 23 28  1  0  0  0  0
 24 25  1  0  0  0  0
 25 26  1  0  0  0  0
 26 27  1  0  0  0  0
 27 28  1  0  0  0  0
  3  6  2  0  0  0  0
 26 29  1  0  0  0  0
  8 14  1  0  0  0  0
  1  2  2  0  0  0  0
 14 15  1  0  0  0  0
  5  4  2  0  0  0  0
 14 16  2  0  0  0  0
  4  1  1  0  0  0  0
 14 17  2  0  0  0  0
  5 10  1  0  0  0  0
 15 18  2  0  0  0  0
  6  7  1  0  0  0  0
 18 19  1  0  0  0  0
 29 30  2  0  0  0  0
  7  8  1  0  0  0  0
 30 31  1  0  0  0  0
 19 20  2  0  0  0  0
 31 32  2  0  0  0  0
  8  9  1  0  0  0  0
 32 33  1  0  0  0  0
 20 21  1  0  0  0  0
 33 34  2  0  0  0  0
 34 29  1  0  0  0  0
  9 10  1  0  0  0  0
 12 35  1  0  0  0  0
M  END
>  <ID_NEW>
CPDMM2243

>  <pIC50>
5.999999999999999

$$$$

  SciTegic12180812342D

 27 30  0  0  0  0            999 V2000
   -5.7598    2.6542    0.0000 C   0  0
   -5.7609    1.9144    0.0000 C   0  0
   -5.1253    1.5473    0.0000 C   0  0
   -5.1271    3.0211    0.0000 C   0  0
   -4.4908    2.6579    0.0000 C   0  0
   -4.4874    1.9123    0.0000 C   0  0
   -3.8432    1.5468    0.0000 C   0  0
   -3.2062    1.9182    0.0000 N   0  0
   -3.2097    2.6596    0.0000 C   0  0
   -3.8543    3.0297    0.0000 C   0  0
   -3.8452    0.8093    0.0000 C   0  0
   -4.4779    0.4370    0.0000 O   0  0
   -3.2074    0.4408    0.0000 O   0  0
   -2.5709    1.5542    0.0000 S   0  0
   -1.9417    1.9250    0.0000 C   0  0
   -3.0959    1.0333    0.0000 O   0  0
   -2.0541    1.0333    0.0000 O   0  0
   -1.3000    1.5592    0.0000 C   0  0
   -0.6672    1.9293    0.0000 C   0  0
   -0.6714    2.6639    0.0000 C   0  0
   -1.3143    3.0307    0.0000 C   0  0
   -1.9441    2.6583    0.0000 C   0  0
   -0.0372    3.0346    0.0000 N   0  0
    0.6384    2.7368    0.0000 N   0  0
    1.1270    3.2854    0.0000 C   0  0
    0.7562    3.9196    0.0000 C   0  0
    0.0386    3.7629    0.0000 C   0  0
  4  1  1  0
 14 17  2  0
  5 10  1  0
 15 18  2  0
  6  7  1  0
 18 19  1  0
  7  8  1  0
 19 20  2  0
  8  9  1  0
 20 21  1  0
  9 10  1  0
 21 22  2  0
 22 15  1  0
  5  6  1  0
  7 11  1  0
  2  3  1  0
 11 12  1  0
 11 13  2  0
  3  6  2  0
 20 23  1  0
 23 24  1  0
  8 14  1  0
  1  2  2  0
 14 15  1  0
 24 25  2  0
 25 26  1  0
 26 27  2  0
 27 23  1  0
  5  4  2  0
 14 16  2  0
M  END
>  <ID_NEW>
CPDMM2244

>  <pIC50>
5.999999999999999

$$$$

  SciTegic12180812482D

 29 32  0  0  0  0            999 V2000
   -5.8306    3.4042    0.0000 C   0  0
   -5.8318    2.5769    0.0000 C   0  0
   -5.1169    2.1640    0.0000 C   0  0
   -5.1187    3.8170    0.0000 C   0  0
   -4.4034    3.4079    0.0000 C   0  0
   -4.3999    2.5748    0.0000 C   0  0
   -3.6808    2.1635    0.0000 C   0  0
   -2.9604    2.5807    0.0000 N   0  0
   -2.9638    3.4138    0.0000 C   0  0
   -3.6876    3.8297    0.0000 C   0  0
   -3.6785    1.3385    0.0000 C   0  0
   -4.3904    0.9204    0.0000 O   0  0
   -2.9615    0.9242    0.0000 O   0  0
   -2.2448    2.1701    0.0000 S   0  0
   -2.9625    1.7625    0.0000 O   0  0
   -1.8375    1.4584    0.0000 O   0  0
   -1.4500    2.3875    0.0000 C   0  0
   -0.8655    1.8052    0.0000 C   0  0
   -0.0713    2.0221    0.0000 C   0  0
    0.1384    2.8198    0.0000 C   0  0
   -0.4522    3.4005    0.0000 C   0  0
   -1.2441    3.1806    0.0000 C   0  0
    0.9339    3.0386    0.0000 O   0  0
    1.5211    2.4591    0.0000 C   0  0
    1.3105    1.6638    0.0000 C   0  0
    1.8968    1.0846    0.0000 C   0  0
    2.6933    1.3032    0.0000 N   0  0
    2.9001    2.1062    0.0000 C   0  0
    2.3122    2.6820    0.0000 C   0  0
  7  8  1  0
  8  9  1  0
  9 10  1  0
  7 11  1  0
 11 12  1  0
 11 13  2  0
  8 14  1  0
 14 15  2  0
 14 16  2  0
 14 17  1  0
 17 18  2  0
 18 19  1  0
 19 20  2  0
 20 21  1  0
 21 22  2  0
 22 17  1  0
 20 23  1  0
 23 24  1  0
 24 25  2  0
 25 26  1  0
 26 27  2  0
 27 28  1  0
 28 29  2  0
 29 24  1  0
  1  2  1  0
  2  3  1  0
  3  6  1  0
  5  4  1  0
  4  1  1  0
  5  6  1  0
  5 10  1  0
  6  7  1  0
M  END
>  <ID_NEW>
CPDMM2245

>  <pIC50>
5.999999999999999

$$$$

  -MTS-   10172316422D 0   0.00000     0.00000     0

 30 33  0  0  1  0  0  0  0  0999 V2000
   -4.3250    0.9100    0.0000 C   0  0  0  0  0  0  0  0  0  0  0  0
   -5.1110    0.6610    0.0000 N   0  0  0  0  0  0  0  0  0  0  0  0
   -3.7160    0.3530    0.0000 O   0  0  0  0  0  0  0  0  0  0  0  0
   -5.2890   -0.1440    0.0000 O   0  0  0  0  0  0  0  0  0  0  0  0
   -2.8170    1.2640    0.0000 S   0  0  0  0  0  0  0  0  0  0  0  0
   -2.0250    1.4830    0.0000 C   0  0  0  0  0  0  0  0  0  0  0  0
   -3.6210    1.0540    0.0000 O   0  0  0  0  0  0  0  0  0  0  0  0
   -2.8250    0.4420    0.0000 O   0  0  0  0  0  0  0  0  0  0  0  0
   -1.4400    0.9040    0.0000 C   0  0  0  0  0  0  0  0  0  0  0  0
   -0.6490    1.1230    0.0000 C   0  0  0  0  0  0  0  0  0  0  0  0
   -0.4420    1.9190    0.0000 C   0  0  0  0  0  0  0  0  0  0  0  0
   -1.0330    2.4970    0.0000 C   0  0  0  0  0  0  0  0  0  0  0  0
   -1.8220    2.2750    0.0000 C   0  0  0  0  0  0  0  0  0  0  0  0
    0.3530    2.1400    0.0000 O   0  0  0  0  0  0  0  0  0  0  0  0
    0.9420    1.5630    0.0000 C   0  0  0  0  0  0  0  0  0  0  0  0
    0.7340    0.7670    0.0000 C   0  0  0  0  0  0  0  0  0  0  0  0
    1.3220    0.1900    0.0000 C   0  0  0  0  0  0  0  0  0  0  0  0
    2.1180    0.4110    0.0000 C   0  0  0  0  0  0  0  0  0  0  0  0
    2.3220    1.2140    0.0000 C   0  0  0  0  0  0  0  0  0  0  0  0
    1.7320    1.7880    0.0000 C   0  0  0  0  0  0  0  0  0  0  0  0
    2.7070   -0.1660    0.0000 F   0  0  0  0  0  0  0  0  0  0  0  0
   -4.1470    1.7110    0.0000 C   0  0  1  0  0  0  0  0  0  0  0  0
   -3.3370    1.9040    0.0000 N   0  0  0  0  0  0  0  0  0  0  0  0
   -3.1010    2.6980    0.0000 C   0  0  0  0  0  0  0  0  0  0  0  0
   -3.6710    3.3040    0.0000 C   0  0  0  0  0  0  0  0  0  0  0  0
   -4.7210    2.3110    0.0000 C   0  0  0  0  0  0  0  0  0  0  0  0
   -4.4840    3.1090    0.0000 C   0  0  0  0  0  0  0  0  0  0  0  0
   -5.1690    3.5810    0.0000 O   0  0  0  0  0  0  0  0  0  0  0  0
   -5.8300    3.0750    0.0000 C   0  0  0  0  0  0  0  0  0  0  0  0
   -5.5530    2.2900    0.0000 C   0  0  0  0  0  0  0  0  0  0  0  0
 22  1  1  6  0  0  0
  1  2  1  0  0  0  0
  1  3  2  0  0  0  0
  2  4  1  0  0  0  0
 23  5  1  0  0  0  0
  5  6  1  0  0  0  0
  5  7  2  0  0  0  0
  5  8  2  0  0  0  0
  6  9  2  0  0  0  0
  9 10  1  0  0  0  0
 10 11  2  0  0  0  0
 11 12  1  0  0  0  0
 12 13  2  0  0  0  0
 13  6  1  0  0  0  0
 11 14  1  0  0  0  0
 14 15  1  0  0  0  0
 15 16  2  0  0  0  0
 16 17  1  0  0  0  0
 17 18  2  0  0  0  0
 18 19  1  0  0  0  0
 19 20  2  0  0  0  0
 20 15  1  0  0  0  0
 18 21  1  0  0  0  0
 22 23  1  0  0  0  0
 22 26  1  0  0  0  0
 23 24  1  0  0  0  0
 24 25  1  0  0  0  0
 25 27  1  0  0  0  0
 26 27  2  0  0  0  0
 27 28  1  0  0  0  0
 28 29  1  0  0  0  0
 29 30  2  0  0  0  0
 30 26  1  0  0  0  0
M  END
>  <ID_NEW>
CPDMM2246

>  <pIC50>
5.9807337064582216

$$$$

  SciTegic12180811052D

 33 36  0  0  0  0            999 V2000
   -1.6897   -0.3724    0.0000 C   0  0
   -1.0448   -0.7483    0.0000 C   0  0
   -1.6966    0.3828    0.0000 C   0  0
   -2.3379   -0.7483    0.0000 C   0  0
   -0.3897   -0.3724    0.0000 N   0  0
   -1.0483   -1.4966    0.0000 C   0  0
   -2.3517    0.7621    0.0000 C   0  0
   -1.0448    0.7586    0.0000 C   0  0
   -3.0000   -0.3724    0.0000 C   0  0
    0.2552   -0.7483    0.0000 S   0  0
   -0.3897    0.3828    0.0000 C   0  0
   -1.7000   -1.8690    0.0000 O   0  0
   -0.4000   -1.8759    0.0000 O   0  0
   -3.0000    0.3828    0.0000 C   0  0
   -3.6483   -0.7483    0.0000 O   0  0
    0.9000   -0.3724    0.0000 C   0  0
    0.6207   -1.3897    0.0000 O   0  0
    0.0552   -1.4655    0.0000 O   0  0
   -3.6517    0.7586    0.0000 O   0  0
   -4.3000   -0.3759    0.0000 C   0  0
    1.5552   -0.7483    0.0000 C   0  0
    0.9000    0.3793    0.0000 C   0  0
   -4.3000    0.3793    0.0000 C   0  0
    2.2069   -0.3690    0.0000 C   0  0
    1.5483    0.7586    0.0000 C   0  0
    2.2034    0.3828    0.0000 C   0  0
    2.8517    0.7586    0.0000 C   0  0
    3.5034    0.3862    0.0000 C   0  0
    2.8483    1.5103    0.0000 C   0  0
    4.1517    0.7655    0.0000 C   0  0
    3.4966    1.8862    0.0000 C   0  0
    4.1483    1.5138    0.0000 C   0  0
    4.7966    1.8897    0.0000 Cl  0  0
  1  2  1  0
  1  3  2  0
  1  4  1  0
  2  5  1  0
  2  6  1  0
  3  7  1  0
  3  8  1  0
  4  9  2  0
  5 10  1  0
  5 11  1  0
  6 12  1  0
  6 13  2  0
  7 14  2  0
  9 15  1  0
 10 16  1  0
 10 17  2  0
 10 18  2  0
 14 19  1  0
 15 20  1  0
 16 21  1  0
 16 22  2  0
 19 23  1  0
 21 24  2  0
 22 25  1  0
 24 26  1  0
 26 27  1  0
 27 28  1  0
 27 29  2  0
 28 30  2  0
 29 31  1  0
 30 32  1  0
 32 33  1  0
  8 11  1  0
  9 14  1  0
 25 26  2  0
 31 32  2  0
M  END
>  <ID_NEW>
CPDMM2247

>  <pIC50>
5.920818753952374

$$$$

  -MTS-   10172316422D 0   0.00000     0.00000     0

 33 36  0  0  1  0  0  0  0  0999 V2000
   -5.8310    3.4040    0.0000 C   0  0  0  0  0  0  0  0  0  0  0  0
   -5.8320    2.5770    0.0000 C   0  0  0  0  0  0  0  0  0  0  0  0
   -5.1170    2.1640    0.0000 C   0  0  0  0  0  0  0  0  0  0  0  0
   -5.1190    3.8170    0.0000 C   0  0  0  0  0  0  0  0  0  0  0  0
   -4.4030    3.4080    0.0000 C   0  0  0  0  0  0  0  0  0  0  0  0
   -4.4000    2.5750    0.0000 C   0  0  0  0  0  0  0  0  0  0  0  0
   -3.6810    2.1630    0.0000 C   0  0  1  0  0  0  0  0  0  0  0  0
   -2.9600    2.5810    0.0000 N   0  0  0  0  0  0  0  0  0  0  0  0
   -2.9640    3.4140    0.0000 C   0  0  0  0  0  0  0  0  0  0  0  0
   -3.6880    3.8300    0.0000 C   0  0  0  0  0  0  0  0  0  0  0  0
   -3.6780    1.3380    0.0000 C   0  0  0  0  0  0  0  0  0  0  0  0
   -4.3900    0.9200    0.0000 O   0  0  0  0  0  0  0  0  0  0  0  0
   -2.9610    0.9240    0.0000 O   0  0  0  0  0  0  0  0  0  0  0  0
   -2.2450    2.1700    0.0000 S   0  0  0  0  0  0  0  0  0  0  0  0
   -2.9620    1.7620    0.0000 O   0  0  0  0  0  0  0  0  0  0  0  0
   -1.8370    1.4580    0.0000 O   0  0  0  0  0  0  0  0  0  0  0  0
   -1.4500    2.3870    0.0000 C   0  0  0  0  0  0  0  0  0  0  0  0
   -0.8650    1.8050    0.0000 C   0  0  0  0  0  0  0  0  0  0  0  0
   -0.0710    2.0220    0.0000 C   0  0  0  0  0  0  0  0  0  0  0  0
    0.1380    2.8200    0.0000 C   0  0  0  0  0  0  0  0  0  0  0  0
   -0.4520    3.4000    0.0000 C   0  0  0  0  0  0  0  0  0  0  0  0
   -1.2440    3.1810    0.0000 C   0  0  0  0  0  0  0  0  0  0  0  0
    0.9340    3.0390    0.0000 O   0  0  0  0  0  0  0  0  0  0  0  0
    1.5210    2.4590    0.0000 C   0  0  0  0  0  0  0  0  0  0  0  0
    1.3100    1.6640    0.0000 C   0  0  0  0  0  0  0  0  0  0  0  0
    1.8970    1.0850    0.0000 C   0  0  0  0  0  0  0  0  0  0  0  0
    2.6930    1.3030    0.0000 C   0  0  0  0  0  0  0  0  0  0  0  0
    2.9000    2.1060    0.0000 C   0  0  0  0  0  0  0  0  0  0  0  0
    2.3120    2.6820    0.0000 C   0  0  0  0  0  0  0  0  0  0  0  0
    3.2810    0.7240    0.0000 C   0  0  0  0  0  0  0  0  0  0  0  0
    3.0740   -0.0740    0.0000 F   0  0  0  0  0  0  0  0  0  0  0  0
    2.5700    0.3060    0.0000 F   0  0  0  0  0  0  0  0  0  0  0  0
    4.0410    1.0460    0.0000 F   0  0  0  0  0  0  0  0  0  0  0  0
  7  8  1  0  0  0  0
  8  9  1  0  0  0  0
  9 10  1  0  0  0  0
  7 11  1  1  0  0  0
 11 12  1  0  0  0  0
 11 13  2  0  0  0  0
  8 14  1  0  0  0  0
 14 15  2  0  0  0  0
 14 16  2  0  0  0  0
 14 17  1  0  0  0  0
 17 18  2  0  0  0  0
 18 19  1  0  0  0  0
 19 20  2  0  0  0  0
 20 21  1  0  0  0  0
 21 22  2  0  0  0  0
 22 17  1  0  0  0  0
 20 23  1  0  0  0  0
 23 24  1  0  0  0  0
 24 25  2  0  0  0  0
 25 26  1  0  0  0  0
 26 27  2  0  0  0  0
 27 28  1  0  0  0  0
 28 29  2  0  0  0  0
 29 24  1  0  0  0  0
  1  2  2  0  0  0  0
  2  3  1  0  0  0  0
  3  6  2  0  0  0  0
  5  4  2  0  0  0  0
  4  1  1  0  0  0  0
  5  6  1  0  0  0  0
  5 10  1  0  0  0  0
  6  7  1  0  0  0  0
 27 30  1  0  0  0  0
 30 31  1  0  0  0  0
 30 32  1  0  0  0  0
 30 33  1  0  0  0  0
M  END
>  <ID_NEW>
CPDMM2248

>  <pIC50>
5.853871964321762

$$$$

  SciTegic12180812512D

 34 37  0  0  0  0            999 V2000
   -2.2682    2.1517    0.0000 S   0  0
   -1.5537    2.5642    0.0000 C   0  0
   -0.8407    2.1471    0.0000 C   0  0
   -0.1267    2.5589    0.0000 C   0  0
   -0.1263    3.3848    0.0000 C   0  0
   -0.8458    3.7971    0.0000 C   0  0
   -1.5568    3.3829    0.0000 C   0  0
   -2.8557    1.5684    0.0000 O   0  0
   -1.8599    1.4392    0.0000 O   0  0
   -5.8333    3.3875    0.0000 C   0  0
   -5.8333    2.5625    0.0000 C   0  0
   -5.1213    2.1542    0.0000 C   0  0
   -5.1213    3.8042    0.0000 C   0  0
   -4.4093    3.3875    0.0000 C   0  0
   -4.4082    2.5625    0.0000 C   0  0
   -3.6972    2.1532    0.0000 C   0  0
   -2.9826    2.5643    0.0000 N   0  0
   -2.9837    3.3893    0.0000 C   0  0
   -3.6993    3.8032    0.0000 C   0  0
   -3.6973    1.3282    0.0000 C   0  0
   -4.4110    0.9144    0.0000 O   0  0
   -2.9820    0.9142    0.0000 O   0  0
    0.5876    3.7983    0.0000 O   0  0
    1.3026    3.3868    0.0000 C   0  0
    1.2984    2.5614    0.0000 C   0  0
    2.0126    2.1500    0.0000 C   0  0
    2.7274    2.5635    0.0000 C   0  0
    2.7237    3.3928    0.0000 C   0  0
    2.0089    3.8005    0.0000 C   0  0
    3.4430    2.1530    0.0000 O   0  0
    4.1542    2.5708    0.0000 C   0  0
    4.8718    2.1638    0.0000 F   0  0
    4.1479    3.3958    0.0000 F   0  0
    4.8667    2.9875    0.0000 F   0  0
  1  2  1  0
  2  3  2  0
  3  4  1  0
  4  5  2  0
  5  6  1  0
  6  7  2  0
  7  2  1  0
  1  8  2  0
  1  9  2  0
 10 11  1  0
 10 13  1  0
 11 12  1  0
 12 15  1  0
 14 13  1  0
 14 15  1  0
 14 19  1  0
 15 16  1  0
 16 17  1  0
 17 18  1  0
 18 19  1  0
 16 20  1  0
 20 21  1  0
 20 22  2  0
 17  1  1  0
  5 23  1  0
 23 24  1  0
 24 25  2  0
 25 26  1  0
 26 27  2  0
 27 28  1  0
 28 29  2  0
 29 24  1  0
 27 30  1  0
 30 31  1  0
 31 32  1  0
 31 33  1  0
 31 34  1  0
M  END
>  <ID_NEW>
CPDMM2249

>  <pIC50>
5.853871964321762

$$$$

  -MTS-   10172316422D 0   0.00000     0.00000     0

 33 36  0  0  1  0  0  0  0  0999 V2000
   -1.5520    1.4240    0.0000 C   0  0  0  0  0  0  0  0  0  0  0  0
   -1.5530    0.5970    0.0000 C   0  0  0  0  0  0  0  0  0  0  0  0
   -0.8390    0.1840    0.0000 C   0  0  0  0  0  0  0  0  0  0  0  0
   -0.1220    0.5970    0.0000 C   0  0  0  0  0  0  0  0  0  0  0  0
   -0.1250    1.4280    0.0000 C   0  0  0  0  0  0  0  0  0  0  0  0
   -0.8400    1.8370    0.0000 C   0  0  0  0  0  0  0  0  0  0  0  0
   -2.2680    0.1850    0.0000 S   0  0  0  0  0  0  0  0  0  0  0  0
   -2.8590   -0.3960    0.0000 O   0  0  0  0  0  0  0  0  0  0  0  0
   -1.6880   -0.3960    0.0000 O   0  0  0  0  0  0  0  0  0  0  0  0
   -5.8330    1.4210    0.0000 C   0  0  0  0  0  0  0  0  0  0  0  0
   -5.8330    0.5960    0.0000 C   0  0  0  0  0  0  0  0  0  0  0  0
   -5.1210    0.1870    0.0000 C   0  0  0  0  0  0  0  0  0  0  0  0
   -5.1210    1.8370    0.0000 C   0  0  0  0  0  0  0  0  0  0  0  0
   -4.4090    1.4210    0.0000 C   0  0  0  0  0  0  0  0  0  0  0  0
   -4.4080    0.5960    0.0000 C   0  0  0  0  0  0  0  0  0  0  0  0
   -3.6970    0.1860    0.0000 C   0  0  1  0  0  0  0  0  0  0  0  0
   -2.9830    0.5980    0.0000 N   0  0  0  0  0  0  0  0  0  0  0  0
   -2.9840    1.4230    0.0000 C   0  0  0  0  0  0  0  0  0  0  0  0
   -3.6990    1.8360    0.0000 C   0  0  0  0  0  0  0  0  0  0  0  0
   -3.6970   -0.6380    0.0000 C   0  0  0  0  0  0  0  0  0  0  0  0
   -4.4110   -1.0520    0.0000 N   0  0  0  0  0  0  0  0  0  0  0  0
   -2.9820   -1.0520    0.0000 O   0  0  0  0  0  0  0  0  0  0  0  0
    0.5880    1.8430    0.0000 C   0  0  0  0  0  0  0  0  0  0  0  0
    1.3010    1.4310    0.0000 C   0  0  0  0  0  0  0  0  0  0  0  0
    2.0130    1.8460    0.0000 C   0  0  0  0  0  0  0  0  0  0  0  0
    2.0110    2.6720    0.0000 C   0  0  0  0  0  0  0  0  0  0  0  0
    1.2900    3.0810    0.0000 C   0  0  0  0  0  0  0  0  0  0  0  0
    0.5800    2.6640    0.0000 C   0  0  0  0  0  0  0  0  0  0  0  0
    2.7230    3.0880    0.0000 S   0  0  0  0  0  0  0  0  0  0  0  0
    3.4330    3.5080    0.0000 C   0  0  0  0  0  0  0  0  0  0  0  0
    3.1410    2.3770    0.0000 O   0  0  0  0  0  0  0  0  0  0  0  0
    2.3050    3.7990    0.0000 O   0  0  0  0  0  0  0  0  0  0  0  0
   -4.4170   -1.8750    0.0000 O   0  0  0  0  0  0  0  0  0  0  0  0
  1  2  2  0  0  0  0
  2  3  1  0  0  0  0
  3  4  2  0  0  0  0
  4  5  1  0  0  0  0
  5  6  2  0  0  0  0
  6  1  1  0  0  0  0
  2  7  1  0  0  0  0
  7  8  2  0  0  0  0
  7  9  2  0  0  0  0
 10 11  2  0  0  0  0
 10 13  1  0  0  0  0
 11 12  1  0  0  0  0
 12 15  2  0  0  0  0
 14 13  2  0  0  0  0
 14 15  1  0  0  0  0
 14 19  1  0  0  0  0
 15 16  1  0  0  0  0
 16 17  1  0  0  0  0
 17 18  1  0  0  0  0
 18 19  1  0  0  0  0
 16 20  1  1  0  0  0
 20 21  1  0  0  0  0
 20 22  2  0  0  0  0
 17  7  1  0  0  0  0
  5 23  1  0  0  0  0
 23 24  2  0  0  0  0
 24 25  1  0  0  0  0
 25 26  2  0  0  0  0
 26 27  1  0  0  0  0
 27 28  2  0  0  0  0
 28 23  1  0  0  0  0
 26 29  1  0  0  0  0
 29 30  1  0  0  0  0
 29 31  2  0  0  0  0
 29 32  2  0  0  0  0
 21 33  1  0  0  0  0
M  END
>  <ID_NEW>
CPDMM2250

>  <pIC50>
5.850440361521347

$$$$

  -MTS-   10172316422D 0   0.00000     0.00000     0

 36 40  0  0  1  0  0  0  0  0999 V2000
   -2.0380    1.2720    0.0000 N   0  0  0  0  0  0  0  0  0  0  0  0
   -2.0410    2.0970    0.0000 C   0  0  2  0  0  0  0  0  0  0  0  0
   -2.7550    0.8550    0.0000 C   0  0  0  0  0  0  0  0  0  0  0  0
   -1.4520    0.6900    0.0000 S   0  0  0  0  0  0  0  0  0  0  0  0
   -2.7620    2.5100    0.0000 C   0  0  0  0  0  0  0  0  0  0  0  0
   -1.3310    2.5170    0.0000 C   0  0  0  0  0  0  0  0  0  0  0  0
   -3.4790    1.2760    0.0000 C   0  0  0  0  0  0  0  0  0  0  0  0
   -0.7340    0.2690    0.0000 C   0  0  0  0  0  0  0  0  0  0  0  0
   -0.8650    1.2760    0.0000 O   0  0  0  0  0  0  0  0  0  0  0  0
   -2.0410    0.1030    0.0000 O   0  0  0  0  0  0  0  0  0  0  0  0
   -3.4830    2.0970    0.0000 C   0  0  0  0  0  0  0  0  0  0  0  0
   -0.6140    2.1000    0.0000 N   0  0  0  0  0  0  0  0  0  0  0  0
   -1.3340    3.3480    0.0000 O   0  0  0  0  0  0  0  0  0  0  0  0
   -4.1900    0.8590    0.0000 C   0  0  0  0  0  0  0  0  0  0  0  0
   -0.7380   -0.5590    0.0000 C   0  0  0  0  0  0  0  0  0  0  0  0
   -0.0170    0.6790    0.0000 C   0  0  0  0  0  0  0  0  0  0  0  0
   -4.1970    2.5070    0.0000 C   0  0  0  0  0  0  0  0  0  0  0  0
    0.0970    2.5170    0.0000 O   0  0  0  0  0  0  0  0  0  0  0  0
   -4.9100    1.2720    0.0000 C   0  0  0  0  0  0  0  0  0  0  0  0
   -0.0210   -0.9760    0.0000 C   0  0  0  0  0  0  0  0  0  0  0  0
    0.6970    0.2650    0.0000 C   0  0  0  0  0  0  0  0  0  0  0  0
   -4.9100    2.0970    0.0000 C   0  0  0  0  0  0  0  0  0  0  0  0
    0.6970   -0.5690    0.0000 C   0  0  0  0  0  0  0  0  0  0  0  0
    1.4030   -0.9790    0.0000 N   0  0  0  0  0  0  0  0  0  0  0  0
    1.4000   -1.8030    0.0000 C   0  0  0  0  0  0  0  0  0  0  0  0
    2.1170   -0.5690    0.0000 C   0  0  0  0  0  0  0  0  0  0  0  0
    2.1100   -2.2170    0.0000 C   0  0  0  0  0  0  0  0  0  0  0  0
    2.8310   -0.9860    0.0000 C   0  0  0  0  0  0  0  0  0  0  0  0
    2.8280   -1.8100    0.0000 N   0  0  0  0  0  0  0  0  0  0  0  0
    3.5410   -2.2240    0.0000 C   0  0  0  0  0  0  0  0  0  0  0  0
    3.5340   -3.0480    0.0000 C   0  0  0  0  0  0  0  0  0  0  0  0
    4.2520   -1.8170    0.0000 C   0  0  0  0  0  0  0  0  0  0  0  0
    4.2450   -3.4620    0.0000 C   0  0  0  0  0  0  0  0  0  0  0  0
    4.9620   -2.2280    0.0000 C   0  0  0  0  0  0  0  0  0  0  0  0
    4.9590   -3.0550    0.0000 C   0  0  0  0  0  0  0  0  0  0  0  0
    4.2380   -4.2860    0.0000 C   0  0  0  0  0  0  0  0  0  0  0  0
  1  2  1  0  0  0  0
  1  3  1  0  0  0  0
  1  4  1  0  0  0  0
  2  5  1  0  0  0  0
  2  6  1  6  0  0  0
  3  7  1  0  0  0  0
  4  8  1  0  0  0  0
  4  9  2  0  0  0  0
  4 10  2  0  0  0  0
  5 11  1  0  0  0  0
  6 12  1  0  0  0  0
  6 13  2  0  0  0  0
  7 14  2  0  0  0  0
  8 15  2  0  0  0  0
  8 16  1  0  0  0  0
 11 17  2  0  0  0  0
 12 18  1  0  0  0  0
 14 19  1  0  0  0  0
 15 20  1  0  0  0  0
 16 21  2  0  0  0  0
 17 22  1  0  0  0  0
 20 23  2  0  0  0  0
 23 24  1  0  0  0  0
 24 25  1  0  0  0  0
 24 26  1  0  0  0  0
 25 27  1  0  0  0  0
 26 28  1  0  0  0  0
 27 29  1  0  0  0  0
 29 30  1  0  0  0  0
 30 31  2  0  0  0  0
 30 32  1  0  0  0  0
 31 33  1  0  0  0  0
 32 34  2  0  0  0  0
 33 35  2  0  0  0  0
 33 36  1  0  0  0  0
  7 11  1  0  0  0  0
 19 22  2  0  0  0  0
 21 23  1  0  0  0  0
 28 29  1  0  0  0  0
 34 35  1  0  0  0  0
M  END
>  <ID_NEW>
CPDMM2251

>  <pIC50>
5.849485002168009

$$$$

  -MTS-   10172316422D 0   0.00000     0.00000     0

 35 38  0  0  1  0  0  0  0  0999 V2000
   -5.1580    0.7090    0.0000 C   0  0  0  0  0  0  0  0  0  0  0  0
   -5.1540    2.2320    0.0000 O   0  0  0  0  0  0  0  0  0  0  0  0
   -5.7060    1.4720    0.0000 C   0  0  0  0  0  0  0  0  0  0  0  0
   -4.2620    1.9340    0.0000 C   0  0  1  0  0  0  0  0  0  0  0  0
   -4.2670    0.9960    0.0000 C   0  0  2  0  0  0  0  0  0  0  0  0
   -3.4580    0.5250    0.0000 C   0  0  2  0  0  0  0  0  0  0  0  0
   -2.6440    0.9920    0.0000 N   0  0  0  0  0  0  0  0  0  0  0  0
   -2.6390    1.9300    0.0000 C   0  0  0  0  0  0  0  0  0  0  0  0
   -3.4480    2.4000    0.0000 C   0  0  0  0  0  0  0  0  0  0  0  0
   -3.4590   -0.4090    0.0000 C   0  0  0  0  0  0  0  0  0  0  0  0
   -2.6500   -0.8790    0.0000 N   0  0  0  0  0  0  0  0  0  0  0  0
   -4.2730   -0.8750    0.0000 O   0  0  0  0  0  0  0  0  0  0  0  0
   -0.2610    0.9400    0.0000 C   0  0  0  0  0  0  0  0  0  0  0  0
   -1.1670    1.1810    0.0000 C   0  0  0  0  0  0  0  0  0  0  0  0
   -1.4050    2.0890    0.0000 C   0  0  0  0  0  0  0  0  0  0  0  0
   -0.7400    2.7520    0.0000 C   0  0  0  0  0  0  0  0  0  0  0  0
    0.1650    2.5080    0.0000 C   0  0  0  0  0  0  0  0  0  0  0  0
    0.4030    1.6000    0.0000 C   0  0  0  0  0  0  0  0  0  0  0  0
   -1.8310    0.5210    0.0000 S   0  0  0  0  0  0  0  0  0  0  0  0
   -2.3740   -0.2430    0.0000 O   0  0  0  0  0  0  0  0  0  0  0  0
   -1.1140   -0.0810    0.0000 O   0  0  0  0  0  0  0  0  0  0  0  0
    0.8290    3.1630    0.0000 O   0  0  0  0  0  0  0  0  0  0  0  0
    1.7350    2.9180    0.0000 C   0  0  0  0  0  0  0  0  0  0  0  0
    2.4000    3.5820    0.0000 C   0  0  0  0  0  0  0  0  0  0  0  0
    3.3050    3.3370    0.0000 C   0  0  0  0  0  0  0  0  0  0  0  0
    3.5430    2.4250    0.0000 C   0  0  0  0  0  0  0  0  0  0  0  0
    2.8790    1.7700    0.0000 C   0  0  0  0  0  0  0  0  0  0  0  0
    1.9730    2.0140    0.0000 C   0  0  0  0  0  0  0  0  0  0  0  0
    4.4490    2.1800    0.0000 S   0  0  0  0  0  0  0  0  0  0  0  0
    4.4420    1.2460    0.0000 C   0  0  0  0  0  0  0  0  0  0  0  0
    5.3790    2.1830    0.0000 O   0  0  0  0  0  0  0  0  0  0  0  0
    4.4420    3.1170    0.0000 O   0  0  0  0  0  0  0  0  0  0  0  0
   -2.6540   -1.8120    0.0000 O   0  0  0  0  0  0  0  0  0  0  0  0
   -4.3750    0.0020    0.0000 H   0  0  0  0  0  0  0  0  0  0  0  0
   -4.3610    2.9290    0.0000 H   0  0  0  0  0  0  0  0  0  0  0  0
  6 10  1  6  0  0  0
 10 11  1  0  0  0  0
 10 12  2  0  0  0  0
  1  5  1  0  0  0  0
  4  2  1  0  0  0  0
  2  3  1  0  0  0  0
  3  1  1  0  0  0  0
  4  9  1  0  0  0  0
  5  6  1  0  0  0  0
  6  7  1  0  0  0  0
  7  8  1  0  0  0  0
  8  9  1  0  0  0  0
  4  5  1  0  0  0  0
 19 21  2  0  0  0  0
 16 17  1  0  0  0  0
 17 22  1  0  0  0  0
 14 15  1  0  0  0  0
 22 23  1  0  0  0  0
 17 18  2  0  0  0  0
 23 24  2  0  0  0  0
 18 13  1  0  0  0  0
 24 25  1  0  0  0  0
 13 14  2  0  0  0  0
 25 26  2  0  0  0  0
 14 19  1  0  0  0  0
 26 27  1  0  0  0  0
 15 16  2  0  0  0  0
 27 28  2  0  0  0  0
 28 23  1  0  0  0  0
 26 29  1  0  0  0  0
 19 20  2  0  0  0  0
  7 19  1  0  0  0  0
 29 30  1  0  0  0  0
 29 31  2  0  0  0  0
 29 32  2  0  0  0  0
 11 33  1  0  0  0  0
  5 34  1  1  0  0  0
  4 35  1  1  0  0  0
M  END
>  <ID_NEW>
CPDMM2252

>  <pIC50>
5.836844888930873

$$$$

  -MTS-   10172316422D 0   0.00000     0.00000     0

 31 34  0  0  1  0  0  0  0  0999 V2000
   -4.8720    0.9750    0.0000 C   0  0  0  0  0  0  0  0  0  0  0  0
   -4.8730    0.2190    0.0000 C   0  0  0  0  0  0  0  0  0  0  0  0
   -4.2210   -0.1570    0.0000 C   0  0  0  0  0  0  0  0  0  0  0  0
   -4.2230    1.3500    0.0000 C   0  0  0  0  0  0  0  0  0  0  0  0
   -3.5740    0.9790    0.0000 C   0  0  0  0  0  0  0  0  0  0  0  0
   -3.5710    0.2160    0.0000 C   0  0  0  0  0  0  0  0  0  0  0  0
   -2.9100   -0.1570    0.0000 C   0  0  2  0  0  0  0  0  0  0  0  0
   -2.2600    0.2220    0.0000 N   0  0  0  0  0  0  0  0  0  0  0  0
   -2.2640    0.9800    0.0000 C   0  0  0  0  0  0  0  0  0  0  0  0
   -2.9210    1.3590    0.0000 C   0  0  0  0  0  0  0  0  0  0  0  0
   -2.9120   -0.9110    0.0000 C   0  0  0  0  0  0  0  0  0  0  0  0
   -3.5610   -1.2920    0.0000 N   0  0  0  0  0  0  0  0  0  0  0  0
   -2.2610   -1.2880    0.0000 O   0  0  0  0  0  0  0  0  0  0  0  0
   -1.6080   -0.1500    0.0000 S   0  0  0  0  0  0  0  0  0  0  0  0
   -0.9670    0.2290    0.0000 C   0  0  0  0  0  0  0  0  0  0  0  0
   -2.1460   -0.6830    0.0000 O   0  0  0  0  0  0  0  0  0  0  0  0
   -1.0830   -0.6830    0.0000 O   0  0  0  0  0  0  0  0  0  0  0  0
   -3.5550   -2.0430    0.0000 O   0  0  0  0  0  0  0  0  0  0  0  0
   -0.3170   -0.1370    0.0000 C   0  0  0  0  0  0  0  0  0  0  0  0
    0.3240    0.2420    0.0000 C   0  0  0  0  0  0  0  0  0  0  0  0
    0.9700   -0.1240    0.0000 C   0  0  0  0  0  0  0  0  0  0  0  0
    1.6120    0.2540    0.0000 C   0  0  0  0  0  0  0  0  0  0  0  0
    1.6050    1.0000    0.0000 C   0  0  0  0  0  0  0  0  0  0  0  0
    0.9510    1.3660    0.0000 C   0  0  0  0  0  0  0  0  0  0  0  0
    0.3120    0.9850    0.0000 C   0  0  0  0  0  0  0  0  0  0  0  0
    2.2460    1.3810    0.0000 C   0  0  0  0  0  0  0  0  0  0  0  0
    2.8940    1.0130    0.0000 C   0  0  0  0  0  0  0  0  0  0  0  0
    3.5350    1.3930    0.0000 C   0  0  0  0  0  0  0  0  0  0  0  0
    3.5270    2.1390    0.0000 C   0  0  0  0  0  0  0  0  0  0  0  0
    2.8720    2.5050    0.0000 C   0  0  0  0  0  0  0  0  0  0  0  0
    2.2340    2.1230    0.0000 C   0  0  0  0  0  0  0  0  0  0  0  0
  7  8  1  0  0  0  0
  8  9  1  0  0  0  0
  9 10  1  0  0  0  0
  5  6  1  0  0  0  0
  7 11  1  6  0  0  0
  2  3  1  0  0  0  0
 11 12  1  0  0  0  0
 11 13  2  0  0  0  0
 15 19  1  0  0  0  0
 19 20  1  0  0  0  0
  3  6  2  0  0  0  0
 20 21  2  0  0  0  0
 12 18  1  0  0  0  0
 21 22  1  0  0  0  0
  8 14  1  0  0  0  0
 22 23  2  0  0  0  0
  1  2  2  0  0  0  0
 23 24  1  0  0  0  0
 14 15  1  0  0  0  0
 24 25  2  0  0  0  0
 25 20  1  0  0  0  0
  5  4  2  0  0  0  0
 23 26  1  0  0  0  0
 14 16  2  0  0  0  0
 26 27  2  0  0  0  0
  4  1  1  0  0  0  0
 27 28  1  0  0  0  0
 14 17  2  0  0  0  0
 28 29  2  0  0  0  0
  5 10  1  0  0  0  0
 29 30  1  0  0  0  0
  6  7  1  0  0  0  0
 30 31  2  0  0  0  0
 31 26  1  0  0  0  0
M  END
>  <ID_NEW>
CPDMM2253

>  <pIC50>
5.823908740944319

$$$$

  -MTS-   10172316422D 0   0.00000     0.00000     0

 31 34  0  0  1  0  0  0  0  0999 V2000
   -4.3250    0.8760    0.0000 C   0  0  0  0  0  0  0  0  0  0  0  0
   -5.1110    0.6280    0.0000 N   0  0  0  0  0  0  0  0  0  0  0  0
   -3.7160    0.3190    0.0000 O   0  0  0  0  0  0  0  0  0  0  0  0
   -5.2890   -0.1780    0.0000 O   0  0  0  0  0  0  0  0  0  0  0  0
   -2.8170    1.2310    0.0000 S   0  0  0  0  0  0  0  0  0  0  0  0
   -2.0250    1.4500    0.0000 C   0  0  0  0  0  0  0  0  0  0  0  0
   -3.6210    1.0210    0.0000 O   0  0  0  0  0  0  0  0  0  0  0  0
   -2.8250    0.4080    0.0000 O   0  0  0  0  0  0  0  0  0  0  0  0
   -1.4400    0.8710    0.0000 C   0  0  0  0  0  0  0  0  0  0  0  0
   -0.6490    1.0900    0.0000 C   0  0  0  0  0  0  0  0  0  0  0  0
   -0.4420    1.8860    0.0000 C   0  0  0  0  0  0  0  0  0  0  0  0
   -1.0330    2.4630    0.0000 C   0  0  0  0  0  0  0  0  0  0  0  0
   -1.8220    2.2420    0.0000 C   0  0  0  0  0  0  0  0  0  0  0  0
   -4.1470    1.6780    0.0000 C   0  0  1  0  0  0  0  0  0  0  0  0
   -3.3370    1.8710    0.0000 N   0  0  0  0  0  0  0  0  0  0  0  0
   -3.1010    2.6650    0.0000 C   0  0  0  0  0  0  0  0  0  0  0  0
   -3.6710    3.2710    0.0000 C   0  0  0  0  0  0  0  0  0  0  0  0
   -4.7210    2.2780    0.0000 C   0  0  1  0  0  0  0  0  0  0  0  0
   -4.4840    3.0760    0.0000 C   0  0  2  0  0  0  0  0  0  0  0  0
   -5.1690    3.5470    0.0000 O   0  0  0  0  0  0  0  0  0  0  0  0
   -5.8300    3.0420    0.0000 C   0  0  0  0  0  0  0  0  0  0  0  0
   -5.5530    2.2570    0.0000 C   0  0  0  0  0  0  0  0  0  0  0  0
    0.3530    2.1070    0.0000 C   0  0  0  0  0  0  0  0  0  0  0  0
    0.9410    1.5280    0.0000 C   0  0  0  0  0  0  0  0  0  0  0  0
    1.7350    1.7490    0.0000 C   0  0  0  0  0  0  0  0  0  0  0  0
    1.9410    2.5490    0.0000 C   0  0  0  0  0  0  0  0  0  0  0  0
    1.3470    3.1280    0.0000 C   0  0  0  0  0  0  0  0  0  0  0  0
    0.5560    2.9040    0.0000 C   0  0  0  0  0  0  0  0  0  0  0  0
    2.7360    2.7710    0.0000 F   0  0  0  0  0  0  0  0  0  0  0  0
   -4.3010    4.0590    0.0000 H   0  0  0  0  0  0  0  0  0  0  0  0
   -5.1020    1.3540    0.0000 H   0  0  0  0  0  0  0  0  0  0  0  0
 14  1  1  6  0  0  0
  1  2  1  0  0  0  0
  1  3  2  0  0  0  0
  2  4  1  0  0  0  0
 15  5  1  0  0  0  0
  5  6  1  0  0  0  0
  5  7  2  0  0  0  0
  5  8  2  0  0  0  0
  6  9  2  0  0  0  0
  9 10  1  0  0  0  0
 10 11  2  0  0  0  0
 11 12  1  0  0  0  0
 12 13  2  0  0  0  0
 13  6  1  0  0  0  0
 14 15  1  0  0  0  0
 14 18  1  0  0  0  0
 15 16  1  0  0  0  0
 16 17  1  0  0  0  0
 17 19  1  0  0  0  0
 18 19  1  0  0  0  0
 19 20  1  0  0  0  0
 20 21  1  0  0  0  0
 21 22  1  0  0  0  0
 22 18  1  0  0  0  0
 11 23  1  0  0  0  0
 23 24  2  0  0  0  0
 24 25  1  0  0  0  0
 25 26  2  0  0  0  0
 26 27  1  0  0  0  0
 27 28  2  0  0  0  0
 28 23  1  0  0  0  0
 26 29  1  0  0  0  0
 19 30  1  1  0  0  0
 18 31  1  1  0  0  0
M  END
>  <ID_NEW>
CPDMM2254

>  <pIC50>
5.7990912534698005

$$$$

  -MTS-   10172316422D 0   0.00000     0.00000     0

 36 39  0  0  1  0  0  0  0  0999 V2000
   -4.4010    3.3870    0.0000 C   0  0  0  0  0  0  0  0  0  0  0  0
   -4.4030    2.5600    0.0000 C   0  0  0  0  0  0  0  0  0  0  0  0
   -3.6880    2.1470    0.0000 C   0  0  0  0  0  0  0  0  0  0  0  0
   -3.6900    3.8000    0.0000 C   0  0  0  0  0  0  0  0  0  0  0  0
   -2.9740    3.3910    0.0000 C   0  0  0  0  0  0  0  0  0  0  0  0
   -2.9710    2.5580    0.0000 C   0  0  0  0  0  0  0  0  0  0  0  0
   -2.2520    2.1470    0.0000 C   0  0  2  0  0  0  0  0  0  0  0  0
   -1.5310    2.5640    0.0000 N   0  0  0  0  0  0  0  0  0  0  0  0
   -1.5350    3.3970    0.0000 C   0  0  0  0  0  0  0  0  0  0  0  0
   -2.2580    3.8130    0.0000 C   0  0  0  0  0  0  0  0  0  0  0  0
   -5.1160    3.8000    0.0000 O   0  0  0  0  0  0  0  0  0  0  0  0
   -5.8300    3.3870    0.0000 C   0  0  0  0  0  0  0  0  0  0  0  0
   -2.2490    1.3220    0.0000 C   0  0  0  0  0  0  0  0  0  0  0  0
   -2.9610    0.9040    0.0000 N   0  0  0  0  0  0  0  0  0  0  0  0
   -1.5320    0.9070    0.0000 O   0  0  0  0  0  0  0  0  0  0  0  0
   -0.8160    2.1530    0.0000 S   0  0  0  0  0  0  0  0  0  0  0  0
   -0.4710    2.9030    0.0000 O   0  0  0  0  0  0  0  0  0  0  0  0
   -1.1680    1.4070    0.0000 O   0  0  0  0  0  0  0  0  0  0  0  0
    0.6140    2.2440    0.0000 C   0  0  0  0  0  0  0  0  0  0  0  0
   -0.0750    1.7860    0.0000 C   0  0  0  0  0  0  0  0  0  0  0  0
   -0.0230    0.9620    0.0000 C   0  0  0  0  0  0  0  0  0  0  0  0
    0.7180    0.5950    0.0000 C   0  0  0  0  0  0  0  0  0  0  0  0
    1.4080    1.0570    0.0000 C   0  0  0  0  0  0  0  0  0  0  0  0
    1.3520    1.8800    0.0000 C   0  0  0  0  0  0  0  0  0  0  0  0
    2.1490    0.6940    0.0000 O   0  0  0  0  0  0  0  0  0  0  0  0
    2.9260    0.9750    0.0000 C   0  0  0  0  0  0  0  0  0  0  0  0
    3.5580    0.4400    0.0000 C   0  0  0  0  0  0  0  0  0  0  0  0
    4.3360    0.7210    0.0000 C   0  0  0  0  0  0  0  0  0  0  0  0
    4.4810    1.5360    0.0000 C   0  0  0  0  0  0  0  0  0  0  0  0
    3.8440    2.0700    0.0000 C   0  0  0  0  0  0  0  0  0  0  0  0
    3.0690    1.7860    0.0000 C   0  0  0  0  0  0  0  0  0  0  0  0
    5.2570    1.8180    0.0000 S   0  0  0  0  0  0  0  0  0  0  0  0
    6.0270    2.1020    0.0000 C   0  0  0  0  0  0  0  0  0  0  0  0
    5.6620    1.1080    0.0000 O   0  0  0  0  0  0  0  0  0  0  0  0
    4.8370    2.5370    0.0000 O   0  0  0  0  0  0  0  0  0  0  0  0
   -2.9670    0.0790    0.0000 O   0  0  0  0  0  0  0  0  0  0  0  0
  1  2  2  0  0  0  0
  2  3  1  0  0  0  0
  3  6  2  0  0  0  0
  5  4  2  0  0  0  0
  4  1  1  0  0  0  0
  5  6  1  0  0  0  0
  5 10  1  0  0  0  0
  6  7  1  0  0  0  0
  7  8  1  0  0  0  0
  8  9  1  0  0  0  0
  9 10  1  0  0  0  0
  1 11  1  0  0  0  0
 11 12  1  0  0  0  0
  7 13  1  6  0  0  0
 13 14  1  0  0  0  0
 13 15  2  0  0  0  0
  8 16  1  0  0  0  0
 16 17  2  0  0  0  0
 16 18  2  0  0  0  0
 19 20  2  0  0  0  0
 20 21  1  0  0  0  0
 21 22  2  0  0  0  0
 22 23  1  0  0  0  0
 23 24  2  0  0  0  0
 24 19  1  0  0  0  0
 23 25  1  0  0  0  0
 25 26  1  0  0  0  0
 26 27  2  0  0  0  0
 27 28  1  0  0  0  0
 28 29  2  0  0  0  0
 29 30  1  0  0  0  0
 30 31  2  0  0  0  0
 31 26  1  0  0  0  0
 29 32  1  0  0  0  0
 32 33  1  0  0  0  0
 20 16  1  0  0  0  0
 32 34  2  0  0  0  0
 32 35  2  0  0  0  0
 14 36  1  0  0  0  0
M  END
>  <ID_NEW>
CPDMM2255

>  <pIC50>
5.717116075380102

$$$$

  -MTS-   10172316422D 0   0.00000     0.00000     0

 32 35  0  0  1  0  0  0  0  0999 V2000
   -2.3890   -0.0210    0.0000 C   0  0  0  0  0  0  0  0  0  0  0  0
   -2.3900   -0.8440    0.0000 C   0  0  0  0  0  0  0  0  0  0  0  0
   -1.6710   -1.2570    0.0000 C   0  0  0  0  0  0  0  0  0  0  0  0
   -1.6730    0.3920    0.0000 C   0  0  0  0  0  0  0  0  0  0  0  0
   -0.9620   -0.0170    0.0000 C   0  0  0  0  0  0  0  0  0  0  0  0
   -0.9620   -0.8420    0.0000 C   0  0  0  0  0  0  0  0  0  0  0  0
   -0.2470   -1.2570    0.0000 C   0  0  0  0  0  0  0  0  0  0  0  0
    0.4690   -0.8440    0.0000 N   0  0  0  0  0  0  0  0  0  0  0  0
    0.4690   -0.0200    0.0000 C   0  0  2  0  0  0  0  0  0  0  0  0
   -0.2460    0.3920    0.0000 C   0  0  0  0  0  0  0  0  0  0  0  0
    1.1910    0.3950    0.0000 C   0  0  0  0  0  0  0  0  0  0  0  0
    1.9030   -0.0230    0.0000 O   0  0  0  0  0  0  0  0  0  0  0  0
    1.1930    1.2200    0.0000 O   0  0  0  0  0  0  0  0  0  0  0  0
    1.1890   -1.2630    0.0000 S   0  0  0  0  0  0  0  0  0  0  0  0
    1.6100   -0.5450    0.0000 O   0  0  0  0  0  0  0  0  0  0  0  0
    0.7690   -1.9860    0.0000 O   0  0  0  0  0  0  0  0  0  0  0  0
    1.9110   -1.6850    0.0000 C   0  0  0  0  0  0  0  0  0  0  0  0
    2.6310   -1.2720    0.0000 C   0  0  0  0  0  0  0  0  0  0  0  0
    3.3450   -1.6890    0.0000 C   0  0  0  0  0  0  0  0  0  0  0  0
    3.3340   -2.5180    0.0000 C   0  0  0  0  0  0  0  0  0  0  0  0
    4.0470   -2.9310    0.0000 C   0  0  0  0  0  0  0  0  0  0  0  0
    4.7750   -2.5270    0.0000 C   0  0  0  0  0  0  0  0  0  0  0  0
    4.7820   -1.7020    0.0000 C   0  0  0  0  0  0  0  0  0  0  0  0
    4.0640   -1.2800    0.0000 C   0  0  0  0  0  0  0  0  0  0  0  0
    5.4900   -2.9390    0.0000 C   0  0  0  0  0  0  0  0  0  0  0  0
    5.4890   -3.7680    0.0000 C   0  0  0  0  0  0  0  0  0  0  0  0
    6.2030   -4.1800    0.0000 C   0  0  0  0  0  0  0  0  0  0  0  0
    6.9220   -3.7670    0.0000 C   0  0  0  0  0  0  0  0  0  0  0  0
    6.9240   -2.9380    0.0000 C   0  0  0  0  0  0  0  0  0  0  0  0
    6.2050   -2.5250    0.0000 C   0  0  0  0  0  0  0  0  0  0  0  0
    7.6450   -2.5180    0.0000 C   0  0  0  0  0  0  0  0  0  0  0  0
    8.3650   -2.0990    0.0000 N   0  0  0  0  0  0  0  0  0  0  0  0
  5  4  2  0  0  0  0
 14 16  2  0  0  0  0
  4  1  1  0  0  0  0
 14 17  1  0  0  0  0
  5 10  1  0  0  0  0
 17 18  1  0  0  0  0
  6  7  1  0  0  0  0
 18 19  1  0  0  0  0
  7  8  1  0  0  0  0
 19 20  2  0  0  0  0
  8  9  1  0  0  0  0
 20 21  1  0  0  0  0
  9 10  1  0  0  0  0
 21 22  2  0  0  0  0
  5  6  1  0  0  0  0
 22 23  1  0  0  0  0
  9 11  1  6  0  0  0
 23 24  2  0  0  0  0
 24 19  1  0  0  0  0
 22 25  1  0  0  0  0
 11 12  1  0  0  0  0
 25 26  2  0  0  0  0
  2  3  1  0  0  0  0
 26 27  1  0  0  0  0
 11 13  2  0  0  0  0
 27 28  2  0  0  0  0
  3  6  2  0  0  0  0
 28 29  1  0  0  0  0
  8 14  1  0  0  0  0
 29 30  2  0  0  0  0
 30 25  1  0  0  0  0
  1  2  2  0  0  0  0
 29 31  1  0  0  0  0
 14 15  2  0  0  0  0
 31 32  3  0  0  0  0
M  END
>  <ID_NEW>
CPDMM2256

>  <pIC50>
5.698970004336018

$$$$

  -MTS-   10172316422D 0   0.00000     0.00000     0

 34 37  0  0  1  0  0  0  0  0999 V2000
   -5.7060    2.2710    0.0000 C   0  0  0  0  0  0  0  0  0  0  0  0
   -5.7070    1.7520    0.0000 C   0  0  0  0  0  0  0  0  0  0  0  0
   -5.2540    1.4890    0.0000 C   0  0  0  0  0  0  0  0  0  0  0  0
   -5.2560    2.5340    0.0000 C   0  0  0  0  0  0  0  0  0  0  0  0
   -4.8070    2.2740    0.0000 C   0  0  0  0  0  0  0  0  0  0  0  0
   -4.8080    1.7540    0.0000 C   0  0  0  0  0  0  0  0  0  0  0  0
   -4.3560    1.4880    0.0000 C   0  0  0  0  0  0  0  0  0  0  0  0
   -3.9020    1.7510    0.0000 N   0  0  0  0  0  0  0  0  0  0  0  0
   -3.9010    2.2720    0.0000 C   0  0  2  0  0  0  0  0  0  0  0  0
   -4.3540    2.5340    0.0000 C   0  0  0  0  0  0  0  0  0  0  0  0
   -3.4460    2.5370    0.0000 C   0  0  0  0  0  0  0  0  0  0  0  0
   -2.9930    2.2680    0.0000 O   0  0  0  0  0  0  0  0  0  0  0  0
   -3.4450    3.0580    0.0000 O   0  0  0  0  0  0  0  0  0  0  0  0
   -3.4490    1.4870    0.0000 S   0  0  0  0  0  0  0  0  0  0  0  0
   -3.1810    1.9390    0.0000 O   0  0  0  0  0  0  0  0  0  0  0  0
   -3.7100    1.0310    0.0000 O   0  0  0  0  0  0  0  0  0  0  0  0
   -2.9890    1.2190    0.0000 C   0  0  0  0  0  0  0  0  0  0  0  0
   -2.5360    1.4780    0.0000 C   0  0  0  0  0  0  0  0  0  0  0  0
   -2.0840    1.2150    0.0000 C   0  0  0  0  0  0  0  0  0  0  0  0
   -2.0910    0.6950    0.0000 C   0  0  0  0  0  0  0  0  0  0  0  0
   -1.6440    0.4320    0.0000 C   0  0  0  0  0  0  0  0  0  0  0  0
   -1.1830    0.6850    0.0000 C   0  0  0  0  0  0  0  0  0  0  0  0
   -1.1760    1.2100    0.0000 C   0  0  0  0  0  0  0  0  0  0  0  0
   -1.6320    1.4740    0.0000 C   0  0  0  0  0  0  0  0  0  0  0  0
   -0.7310    0.4270    0.0000 C   0  0  0  0  0  0  0  0  0  0  0  0
   -0.7320   -0.0970    0.0000 C   0  0  0  0  0  0  0  0  0  0  0  0
   -0.2800   -0.3550    0.0000 C   0  0  0  0  0  0  0  0  0  0  0  0
    0.1770   -0.0960    0.0000 C   0  0  0  0  0  0  0  0  0  0  0  0
    0.1780    0.4290    0.0000 C   0  0  0  0  0  0  0  0  0  0  0  0
   -0.2780    0.6870    0.0000 C   0  0  0  0  0  0  0  0  0  0  0  0
    0.6320    0.6940    0.0000 N   0  0  0  0  0  0  0  0  0  0  0  0
    1.0810    0.4340    0.0000 C   0  0  0  0  0  0  0  0  0  0  0  0
    1.5360    0.6950    0.0000 C   0  0  0  0  0  0  0  0  0  0  0  0
    1.0800   -0.0850    0.0000 O   0  0  0  0  0  0  0  0  0  0  0  0
  4  1  1  0  0  0  0
 14 17  1  0  0  0  0
  5 10  1  0  0  0  0
 17 18  1  0  0  0  0
  6  7  1  0  0  0  0
 18 19  1  0  0  0  0
  7  8  1  0  0  0  0
 19 20  2  0  0  0  0
  8  9  1  0  0  0  0
 20 21  1  0  0  0  0
  9 10  1  0  0  0  0
 21 22  2  0  0  0  0
  5  6  1  0  0  0  0
 22 23  1  0  0  0  0
  9 11  1  6  0  0  0
 23 24  2  0  0  0  0
 24 19  1  0  0  0  0
 22 25  1  0  0  0  0
 11 12  1  0  0  0  0
 25 26  2  0  0  0  0
  2  3  1  0  0  0  0
 26 27  1  0  0  0  0
 11 13  2  0  0  0  0
 27 28  2  0  0  0  0
  3  6  2  0  0  0  0
 28 29  1  0  0  0  0
  8 14  1  0  0  0  0
 29 30  2  0  0  0  0
 30 25  1  0  0  0  0
  1  2  2  0  0  0  0
 29 31  1  0  0  0  0
 14 15  2  0  0  0  0
 31 32  1  0  0  0  0
  5  4  2  0  0  0  0
 32 33  1  0  0  0  0
 14 16  2  0  0  0  0
 32 34  2  0  0  0  0
M  END
>  <ID_NEW>
CPDMM2257

>  <pIC50>
5.698970004336018

$$$$

  -MTS-   10172316422D 0   0.00000     0.00000     0

 33 36  0  0  1  0  0  0  0  0999 V2000
    5.3770   -1.8690    0.0000 N   0  0  0  0  0  0  0  0  0  0  0  0
    5.5670   -2.5920    0.0000 S   0  0  0  0  0  0  0  0  0  0  0  0
    5.8200   -1.2540    0.0000 C   0  0  1  0  0  0  0  0  0  0  0  0
    6.5670   -1.2540    0.0000 C   0  0  0  0  0  0  0  0  0  0  0  0
    6.9800   -6.6200    0.0000 C   0  0  0  0  0  0  0  0  0  0  0  0
    4.6540   -1.6370    0.0000 C   0  0  1  0  0  0  0  0  0  0  0  0
    5.3710   -0.6440    0.0000 C   0  0  0  0  0  0  0  0  0  0  0  0
    6.3330   -6.2460    0.0000 C   0  0  0  0  0  0  0  0  0  0  0  0
    5.7620   -3.3210    0.0000 C   0  0  0  0  0  0  0  0  0  0  0  0
    4.6500   -0.8790    0.0000 C   0  0  1  0  0  0  0  0  0  0  0  0
    4.8370   -2.7920    0.0000 O   0  0  0  0  0  0  0  0  0  0  0  0
    6.2960   -2.3960    0.0000 O   0  0  0  0  0  0  0  0  0  0  0  0
    6.3370   -5.4960    0.0000 O   0  0  0  0  0  0  0  0  0  0  0  0
    6.9790   -7.3680    0.0000 C   0  0  0  0  0  0  0  0  0  0  0  0
    6.7620   -0.5290    0.0000 O   0  0  0  0  0  0  0  0  0  0  0  0
    7.2170   -1.6290    0.0000 N   0  0  0  0  0  0  0  0  0  0  0  0
    5.2270   -3.8490    0.0000 C   0  0  0  0  0  0  0  0  0  0  0  0
    6.4870   -3.5130    0.0000 C   0  0  0  0  0  0  0  0  0  0  0  0
    6.1470   -4.7740    0.0000 C   0  0  0  0  0  0  0  0  0  0  0  0
    7.6250   -7.7420    0.0000 Cl  0  0  0  0  0  0  0  0  0  0  0  0
    5.4180   -4.5780    0.0000 C   0  0  0  0  0  0  0  0  0  0  0  0
    6.6810   -4.2390    0.0000 C   0  0  0  0  0  0  0  0  0  0  0  0
    7.2120   -2.3790    0.0000 O   0  0  0  0  0  0  0  0  0  0  0  0
    3.9420   -1.8710    0.0000 C   0  0  0  0  0  0  0  0  0  0  0  0
    5.6810   -6.6150    0.0000 C   0  0  0  0  0  0  0  0  0  0  0  0
    3.9350   -0.6530    0.0000 C   0  0  0  0  0  0  0  0  0  0  0  0
    3.4910   -1.2640    0.0000 C   0  0  0  0  0  0  0  0  0  0  0  0
    5.6770   -7.3650    0.0000 C   0  0  0  0  0  0  0  0  0  0  0  0
    6.3230   -7.7440    0.0000 C   0  0  0  0  0  0  0  0  0  0  0  0
    7.6250   -6.2370    0.0000 C   0  0  0  0  0  0  0  0  0  0  0  0
    8.2740   -5.8550    0.0000 N   0  0  0  0  0  0  0  0  0  0  0  0
    4.6460    0.1210    0.0000 H   0  0  0  0  0  0  0  0  0  0  0  0
    4.6570   -2.6370    0.0000 H   0  0  0  0  0  0  0  0  0  0  0  0
  4 15  2  0  0  0  0
 10  6  1  0  0  0  0
  4 16  1  0  0  0  0
 16 23  1  0  0  0  0
  9 17  2  0  0  0  0
 17 21  1  0  0  0  0
 21 19  2  0  0  0  0
 19 22  1  0  0  0  0
  6  1  1  0  0  0  0
 22 18  2  0  0  0  0
 18  9  1  0  0  0  0
 19 13  1  0  0  0  0
  1  3  1  0  0  0  0
  3  7  1  0  0  0  0
 13  8  1  0  0  0  0
  7 10  1  0  0  0  0
  8 25  2  0  0  0  0
  3  4  1  6  0  0  0
 25 28  1  0  0  0  0
 28 29  2  0  0  0  0
 29 14  1  0  0  0  0
  1  2  1  0  0  0  0
 14  5  2  0  0  0  0
  5  8  1  0  0  0  0
  5 30  1  0  0  0  0
 14 20  1  0  0  0  0
  2 11  2  0  0  0  0
  2 12  2  0  0  0  0
 10 26  1  0  0  0  0
  2  9  1  0  0  0  0
 26 27  1  0  0  0  0
 27 24  1  0  0  0  0
 24  6  1  0  0  0  0
 30 31  3  0  0  0  0
 10 32  1  1  0  0  0
  6 33  1  1  0  0  0
M  END
>  <ID_NEW>
CPDMM2258

>  <pIC50>
5.698970004336018

$$$$

  -MTS-   10172316422D 0   0.00000     0.00000     0

 32 35  0  0  1  0  0  0  0  0999 V2000
    0.8880   -7.9440    0.0000 C   0  0  0  0  0  0  0  0  0  0  0  0
    0.1010   -8.1930    0.0000 N   0  0  0  0  0  0  0  0  0  0  0  0
    1.4960   -8.5010    0.0000 O   0  0  0  0  0  0  0  0  0  0  0  0
   -0.0770   -8.9980    0.0000 O   0  0  0  0  0  0  0  0  0  0  0  0
    2.3950   -7.5900    0.0000 S   0  0  0  0  0  0  0  0  0  0  0  0
    3.1870   -7.3710    0.0000 C   0  0  0  0  0  0  0  0  0  0  0  0
    1.5920   -7.8000    0.0000 O   0  0  0  0  0  0  0  0  0  0  0  0
    2.3870   -8.4120    0.0000 O   0  0  0  0  0  0  0  0  0  0  0  0
    3.7720   -7.9500    0.0000 C   0  0  0  0  0  0  0  0  0  0  0  0
    4.5640   -7.7310    0.0000 C   0  0  0  0  0  0  0  0  0  0  0  0
    4.7700   -6.9350    0.0000 C   0  0  0  0  0  0  0  0  0  0  0  0
    4.1800   -6.3570    0.0000 C   0  0  0  0  0  0  0  0  0  0  0  0
    3.3900   -6.5790    0.0000 C   0  0  0  0  0  0  0  0  0  0  0  0
    1.0650   -7.1430    0.0000 C   0  0  1  0  0  0  0  0  0  0  0  0
    1.8750   -6.9500    0.0000 N   0  0  0  0  0  0  0  0  0  0  0  0
    2.1110   -6.1560    0.0000 C   0  0  0  0  0  0  0  0  0  0  0  0
    1.5410   -5.5500    0.0000 C   0  0  0  0  0  0  0  0  0  0  0  0
    0.4910   -6.5440    0.0000 C   0  0  1  0  0  0  0  0  0  0  0  0
    0.7290   -5.7450    0.0000 C   0  0  2  0  0  0  0  0  0  0  0  0
    0.1590   -5.1440    0.0000 C   0  0  0  0  0  0  0  0  0  0  0  0
   -0.6510   -5.3350    0.0000 C   0  0  0  0  0  0  0  0  0  0  0  0
   -0.8890   -6.1340    0.0000 C   0  0  0  0  0  0  0  0  0  0  0  0
   -0.3160   -6.7410    0.0000 C   0  0  0  0  0  0  0  0  0  0  0  0
    5.5650   -6.7140    0.0000 C   0  0  0  0  0  0  0  0  0  0  0  0
    6.1530   -7.2920    0.0000 C   0  0  0  0  0  0  0  0  0  0  0  0
    6.9470   -7.0720    0.0000 C   0  0  0  0  0  0  0  0  0  0  0  0
    7.1540   -6.2720    0.0000 C   0  0  0  0  0  0  0  0  0  0  0  0
    6.5600   -5.6930    0.0000 C   0  0  0  0  0  0  0  0  0  0  0  0
    5.7680   -5.9170    0.0000 C   0  0  0  0  0  0  0  0  0  0  0  0
    7.9450   -6.0460    0.0000 F   0  0  0  0  0  0  0  0  0  0  0  0
    1.0130   -4.7860    0.0000 H   0  0  0  0  0  0  0  0  0  0  0  0
    0.2120   -7.5040    0.0000 H   0  0  0  0  0  0  0  0  0  0  0  0
 14  1  1  6  0  0  0
  1  2  1  0  0  0  0
  1  3  2  0  0  0  0
  2  4  1  0  0  0  0
 15  5  1  0  0  0  0
  5  6  1  0  0  0  0
  5  7  2  0  0  0  0
  5  8  2  0  0  0  0
  6  9  2  0  0  0  0
  9 10  1  0  0  0  0
 10 11  2  0  0  0  0
 11 12  1  0  0  0  0
 12 13  2  0  0  0  0
 13  6  1  0  0  0  0
 14 15  1  0  0  0  0
 14 18  1  0  0  0  0
 15 16  1  0  0  0  0
 16 17  1  0  0  0  0
 17 19  1  0  0  0  0
 18 19  1  0  0  0  0
 18 23  1  0  0  0  0
 19 20  1  0  0  0  0
 20 21  1  0  0  0  0
 21 22  1  0  0  0  0
 22 23  1  0  0  0  0
 11 24  1  0  0  0  0
 24 25  2  0  0  0  0
 25 26  1  0  0  0  0
 26 27  2  0  0  0  0
 27 28  1  0  0  0  0
 28 29  2  0  0  0  0
 29 24  1  0  0  0  0
 27 30  1  0  0  0  0
 19 31  1  1  0  0  0
 18 32  1  1  0  0  0
M  END
>  <ID_NEW>
CPDMM2259

>  <pIC50>
5.621107212730259

$$$$

  SciTegic12180812302D

 33 36  0  0  0  0            999 V2000
    3.1236   -4.2125    0.0000 C   0  0
    3.1224   -4.9690    0.0000 C   0  0
    3.7747   -5.3444    0.0000 C   0  0
    3.7729   -3.8330    0.0000 C   0  0
    4.4258   -4.2088    0.0000 C   0  0
    5.7313   -4.9685    0.0000 N   0  0
    5.7324   -4.2108    0.0000 C   0  0
    5.0774   -3.8266    0.0000 C   0  0
    6.3863   -5.3455    0.0000 S   0  0
    6.7542   -4.6875    0.0000 O   0  0
    7.0334   -5.7208    0.0000 C   0  0
    7.0315   -6.4700    0.0000 C   0  0
    7.6777   -6.8411    0.0000 C   0  0
    8.3291   -6.4683    0.0000 C   0  0
    8.3256   -5.7160    0.0000 C   0  0
    7.6746   -5.3445    0.0000 C   0  0
    8.9821   -6.8416    0.0000 O   0  0
    9.6330   -6.4649    0.0000 C   0  0
   10.2836   -6.8397    0.0000 C   0  0
   10.9341   -6.4637    0.0000 C   0  0
   10.9326   -5.7086    0.0000 C   0  0
   10.2746   -5.3314    0.0000 C   0  0
    9.6271   -5.7139    0.0000 C   0  0
   11.5872   -5.3268    0.0000 Cl  0  0
    6.0203   -6.0049    0.0000 O   0  0
    5.0785   -5.3420    0.0000 C   0  0
    4.4208   -4.9667    0.0000 C   0  0
    5.0789   -6.0961    0.0000 C   0  0
    4.4271   -6.4757    0.0000 O   0  0
    5.7311   -6.4750    0.0000 O   0  0
    3.7773   -6.0970    0.0000 F   0  0
    3.7704   -3.0797    0.0000 C   0  0
    4.4215   -2.7009    0.0000 C   0  0
  6  9  1  0
 18 19  2  0
  5  4  2  0
 19 20  1  0
  9 10  2  0
 20 21  2  0
  4  1  1  0
 21 22  1  0
 22 23  2  0
 23 18  1  0
 21 24  1  0
  5  8  1  0
  9 11  1  0
 11 12  2  0
 12 13  1  0
 13 14  2  0
  6  7  1  0
 14 15  1  0
  7  8  1  0
 15 16  2  0
  9 25  2  0
 16 11  1  0
  6 26  1  0
  5 27  1  0
 26 27  1  0
  2  3  1  0
 26 28  1  0
  3 27  2  0
 28 29  1  0
 14 17  1  0
 28 30  2  0
  3 31  1  0
  1  2  2  0
  4 32  1  0
 17 18  1  0
 32 33  1  0
M  END
>  <ID_NEW>
CPDMM2260

>  <pIC50>
5.619788758288393

$$$$

  SciTegic12180812562D

 34 37  0  0  0  0            999 V2000
    2.6319   -4.1500    0.0000 C   0  0
    2.6307   -4.9023    0.0000 C   0  0
    3.2789   -5.2777    0.0000 C   0  0
    3.2771   -3.7747    0.0000 C   0  0
    3.9300   -4.1463    0.0000 C   0  0
    3.9334   -4.9044    0.0000 C   0  0
    4.5859   -5.2782    0.0000 C   0  0
    5.2396   -4.8985    0.0000 N   0  0
    5.2362   -4.1404    0.0000 C   0  0
    4.5791   -3.7620    0.0000 C   0  0
    4.5882   -6.0282    0.0000 C   0  0
    3.9373   -6.4051    0.0000 O   0  0
    5.2370   -6.4013    0.0000 O   0  0
    5.8927   -5.2716    0.0000 S   0  0
    5.8949   -6.0215    0.0000 O   0  0
    6.5394   -4.8946    0.0000 C   0  0
    5.3609   -5.8023    0.0000 O   0  0
    7.1844   -5.2708    0.0000 C   0  0
    7.8347   -4.8945    0.0000 N   0  0
    7.8329   -4.1437    0.0000 C   0  0
    7.1790   -3.7708    0.0000 C   0  0
    6.5316   -4.1494    0.0000 C   0  0
    8.4790   -3.7658    0.0000 O   0  0
    9.1327   -4.1379    0.0000 C   0  0
    9.1339   -4.8886    0.0000 C   0  0
    9.7826   -5.2606    0.0000 C   0  0
   10.4338   -4.8827    0.0000 C   0  0
   10.4278   -4.1284    0.0000 C   0  0
    9.7745   -3.7601    0.0000 C   0  0
   11.0838   -5.2538    0.0000 O   0  0
   11.0883   -6.0038    0.0000 C   0  0
   11.7382   -6.3749    0.0000 C   0  0
    3.2764   -6.0267    0.0000 F   0  0
    3.2735   -3.0284    0.0000 C   0  0
 14 15  2  0
  5 10  1  0
 14 16  1  0
  6  7  1  0
 14 17  2  0
  7  8  1  0
 16 18  2  0
  8  9  1  0
 18 19  1  0
  9 10  1  0
 19 20  2  0
  5  6  1  0
 20 21  1  0
 21 22  2  0
 22 16  1  0
 20 23  1  0
 23 24  1  0
  2  3  1  0
 24 25  2  0
  7 11  1  0
 25 26  1  0
  3  6  2  0
 26 27  2  0
 11 12  2  0
 27 28  1  0
  1  2  2  0
 28 29  2  0
 29 24  1  0
 11 13  1  0
 27 30  1  0
  5  4  2  0
 30 31  1  0
  8 14  1  0
 31 32  1  0
  3 33  1  0
  4  1  1  0
  4 34  1  0
M  END
>  <ID_NEW>
CPDMM2261

>  <pIC50>
5.619788758288393

$$$$

  SciTegic12180813002D

 29 32  0  0  0  0            999 V2000
    6.6358    0.1563    0.0000 O   0  0
    5.3449   -0.6076    0.0000 C   0  0
    5.6725   -2.0713    0.0000 C   0  0
    7.7613   -0.8353    0.0000 C   0  0
    7.1659   -2.2121    0.0000 C   0  0
    8.0605   -3.4161    0.0000 C   0  0
    9.5505   -3.2433    0.0000 N   0  0
   10.1459   -1.8665    0.0000 C   0  0
    9.2513   -0.6626    0.0000 C   0  0
    7.4652   -4.7929    0.0000 C   0  0
    5.9752   -4.9657    0.0000 O   0  0
    8.3598   -5.9969    0.0000 O   0  0
   13.0422   -4.3741    0.0000 C   0  0
   11.7226   -3.6610    0.0000 C   0  0
   11.6803   -2.1616    0.0000 C   0  0
   12.9577   -1.3753    0.0000 C   0  0
   14.2774   -2.0884    0.0000 C   0  0
   14.3196   -3.5878    0.0000 C   0  0
   15.5548   -1.3021    0.0000 O   0  0
   16.7305   -2.2335    0.0000 C   0  0
   18.1251   -1.6810    0.0000 C   0  0
   19.3008   -2.6124    0.0000 C   0  0
   19.0821   -4.0964    0.0000 C   0  0
   17.6876   -4.6489    0.0000 C   0  0
   16.5118   -3.7175    0.0000 C   0  0
   10.4452   -4.4473    0.0000 S   0  0
    9.3238   -5.4435    0.0000 O   0  0
   11.3398   -5.6513    0.0000 O   0  0
   20.2579   -5.0278    0.0000 F   0  0
  8  9  1  0
 10 11  1  0
 10 12  2  0
  6 10  1  0
  2  3  2  0
  1  2  1  0
  3  5  1  0
  4  1  1  0
  4  5  2  0
  4  9  1  0
  5  6  1  0
  6  7  1  0
  7  8  1  0
 22 23  2  0
 17 18  2  0
 23 24  1  0
 18 13  1  0
 24 25  2  0
 25 20  1  0
 13 14  2  0
 17 19  1  0
 15 16  2  0
 19 20  1  0
 20 21  2  0
 14 26  1  0
 16 17  1  0
 21 22  1  0
 26 27  2  0
 14 15  1  0
 26 28  2  0
 23 29  1  0
  7 26  1  0
M  END
>  <ID_NEW>
CPDMM2262

>  <pIC50>
5.598289470242254

$$$$

  -MTS-   10172316422D 0   0.00000     0.00000     0

 29 32  0  0  1  0  0  0  0  0999 V2000
   -4.3250    0.9100    0.0000 C   0  0  0  0  0  0  0  0  0  0  0  0
   -5.1110    0.6610    0.0000 N   0  0  0  0  0  0  0  0  0  0  0  0
   -3.7160    0.3530    0.0000 O   0  0  0  0  0  0  0  0  0  0  0  0
   -5.2890   -0.1440    0.0000 O   0  0  0  0  0  0  0  0  0  0  0  0
   -2.8170    1.2640    0.0000 S   0  0  0  0  0  0  0  0  0  0  0  0
   -2.0250    1.4830    0.0000 C   0  0  0  0  0  0  0  0  0  0  0  0
   -3.6210    1.0540    0.0000 O   0  0  0  0  0  0  0  0  0  0  0  0
   -2.8250    0.4420    0.0000 O   0  0  0  0  0  0  0  0  0  0  0  0
   -1.4400    0.9040    0.0000 C   0  0  0  0  0  0  0  0  0  0  0  0
   -0.6490    1.1230    0.0000 C   0  0  0  0  0  0  0  0  0  0  0  0
   -0.4420    1.9190    0.0000 C   0  0  0  0  0  0  0  0  0  0  0  0
   -1.0330    2.4970    0.0000 C   0  0  0  0  0  0  0  0  0  0  0  0
   -1.8220    2.2750    0.0000 C   0  0  0  0  0  0  0  0  0  0  0  0
   -4.1470    1.7110    0.0000 C   0  0  1  0  0  0  0  0  0  0  0  0
   -3.3370    1.9040    0.0000 N   0  0  0  0  0  0  0  0  0  0  0  0
   -3.1010    2.6980    0.0000 C   0  0  0  0  0  0  0  0  0  0  0  0
   -3.6710    3.3040    0.0000 C   0  0  0  0  0  0  0  0  0  0  0  0
   -4.7210    2.3110    0.0000 C   0  0  0  0  0  0  0  0  0  0  0  0
   -4.4840    3.1090    0.0000 C   0  0  0  0  0  0  0  0  0  0  0  0
   -5.1690    3.5810    0.0000 O   0  0  0  0  0  0  0  0  0  0  0  0
   -5.8300    3.0750    0.0000 C   0  0  0  0  0  0  0  0  0  0  0  0
   -5.5530    2.2900    0.0000 C   0  0  0  0  0  0  0  0  0  0  0  0
    0.3530    2.1400    0.0000 C   0  0  0  0  0  0  0  0  0  0  0  0
    0.9410    1.5620    0.0000 C   0  0  0  0  0  0  0  0  0  0  0  0
    1.7350    1.7820    0.0000 C   0  0  0  0  0  0  0  0  0  0  0  0
    1.9410    2.5820    0.0000 C   0  0  0  0  0  0  0  0  0  0  0  0
    1.3470    3.1610    0.0000 C   0  0  0  0  0  0  0  0  0  0  0  0
    0.5560    2.9370    0.0000 C   0  0  0  0  0  0  0  0  0  0  0  0
    2.7360    2.8040    0.0000 Cl  0  0  0  0  0  0  0  0  0  0  0  0
 14  1  1  6  0  0  0
  1  2  1  0  0  0  0
  1  3  2  0  0  0  0
  2  4  1  0  0  0  0
 15  5  1  0  0  0  0
  5  6  1  0  0  0  0
  5  7  2  0  0  0  0
  5  8  2  0  0  0  0
  6  9  2  0  0  0  0
  9 10  1  0  0  0  0
 10 11  2  0  0  0  0
 11 12  1  0  0  0  0
 12 13  2  0  0  0  0
 13  6  1  0  0  0  0
 14 15  1  0  0  0  0
 14 18  1  0  0  0  0
 15 16  1  0  0  0  0
 16 17  1  0  0  0  0
 17 19  1  0  0  0  0
 18 19  2  0  0  0  0
 19 20  1  0  0  0  0
 20 21  1  0  0  0  0
 21 22  2  0  0  0  0
 22 18  1  0  0  0  0
 11 23  1  0  0  0  0
 23 24  2  0  0  0  0
 24 25  1  0  0  0  0
 25 26  2  0  0  0  0
 26 27  1  0  0  0  0
 27 28  2  0  0  0  0
 28 23  1  0  0  0  0
 26 29  1  0  0  0  0
M  END
>  <ID_NEW>
CPDMM2263

>  <pIC50>
5.568288456992223

$$$$

  -MTS-   10172316422D 0   0.00000     0.00000     0

 27 30  0  0  1  0  0  0  0  0999 V2000
    5.8500   -3.6830    0.0000 S   0  0  0  0  0  0  0  0  0  0  0  0
    5.6560   -2.9610    0.0000 N   0  0  0  0  0  0  0  0  0  0  0  0
    6.0990   -2.3460    0.0000 C   0  0  1  0  0  0  0  0  0  0  0  0
    6.8500   -2.3460    0.0000 C   0  0  0  0  0  0  0  0  0  0  0  0
    6.0410   -4.4130    0.0000 C   0  0  0  0  0  0  0  0  0  0  0  0
    4.9370   -2.7290    0.0000 C   0  0  1  0  0  0  0  0  0  0  0  0
    5.6500   -1.7360    0.0000 C   0  0  0  0  0  0  0  0  0  0  0  0
    4.9330   -1.9700    0.0000 C   0  0  1  0  0  0  0  0  0  0  0  0
    5.1170   -3.8790    0.0000 O   0  0  0  0  0  0  0  0  0  0  0  0
    6.5750   -3.4870    0.0000 O   0  0  0  0  0  0  0  0  0  0  0  0
    6.7630   -4.6060    0.0000 C   0  0  0  0  0  0  0  0  0  0  0  0
    6.9560   -5.3300    0.0000 C   0  0  0  0  0  0  0  0  0  0  0  0
    7.2210   -1.6960    0.0000 O   0  0  0  0  0  0  0  0  0  0  0  0
    5.5080   -4.9400    0.0000 C   0  0  0  0  0  0  0  0  0  0  0  0
    7.2210   -2.9960    0.0000 N   0  0  0  0  0  0  0  0  0  0  0  0
    6.4240   -5.8600    0.0000 C   0  0  0  0  0  0  0  0  0  0  0  0
    5.6970   -5.6660    0.0000 C   0  0  0  0  0  0  0  0  0  0  0  0
    7.9710   -2.9960    0.0000 O   0  0  0  0  0  0  0  0  0  0  0  0
    4.2210   -2.9630    0.0000 C   0  0  0  0  0  0  0  0  0  0  0  0
    4.2140   -1.7440    0.0000 C   0  0  0  0  0  0  0  0  0  0  0  0
    3.7740   -2.3560    0.0000 C   0  0  0  0  0  0  0  0  0  0  0  0
    7.6800   -5.5210    0.0000 C   0  0  0  0  0  0  0  0  0  0  0  0
    6.6170   -6.5870    0.0000 C   0  0  0  0  0  0  0  0  0  0  0  0
    7.8760   -6.2450    0.0000 C   0  0  0  0  0  0  0  0  0  0  0  0
    7.3450   -6.7810    0.0000 C   0  0  0  0  0  0  0  0  0  0  0  0
    4.9270   -0.9700    0.0000 H   0  0  0  0  0  0  0  0  0  0  0  0
    4.9390   -3.7290    0.0000 H   0  0  0  0  0  0  0  0  0  0  0  0
  8 20  1  0  0  0  0
 20 21  1  0  0  0  0
 21 19  1  0  0  0  0
 19  6  1  0  0  0  0
  8  6  1  0  0  0  0
  6  2  1  0  0  0  0
  2  3  1  0  0  0  0
  3  7  1  0  0  0  0
  7  8  1  0  0  0  0
  3  4  1  6  0  0  0
  2  1  1  0  0  0  0
  1  9  2  0  0  0  0
  1 10  2  0  0  0  0
  1  5  1  0  0  0  0
  4 13  2  0  0  0  0
  4 15  1  0  0  0  0
 15 18  1  0  0  0  0
  5 14  2  0  0  0  0
 14 17  1  0  0  0  0
 17 16  2  0  0  0  0
 12 11  2  0  0  0  0
 11  5  1  0  0  0  0
 12 16  1  0  0  0  0
 16 23  1  0  0  0  0
 23 25  2  0  0  0  0
 25 24  1  0  0  0  0
 24 22  2  0  0  0  0
 22 12  1  0  0  0  0
  8 26  1  1  0  0  0
  6 27  1  1  0  0  0
M  END
>  <ID_NEW>
CPDMM2264

>  <pIC50>
5.552841968657781

$$$$

  -MTS-   10172316422D 0   0.00000     0.00000     0

 27 29  0  0  1  0  0  0  0  0999 V2000
    5.6560   -2.3440    0.0000 N   0  0  0  0  0  0  0  0  0  0  0  0
    5.8500   -3.0710    0.0000 S   0  0  0  0  0  0  0  0  0  0  0  0
    6.0990   -1.7340    0.0000 C   0  0  1  0  0  0  0  0  0  0  0  0
    6.8500   -1.7330    0.0000 C   0  0  0  0  0  0  0  0  0  0  0  0
    4.9370   -2.1170    0.0000 C   0  0  1  0  0  0  0  0  0  0  0  0
    5.6500   -1.1230    0.0000 C   0  0  0  0  0  0  0  0  0  0  0  0
    6.0410   -3.7960    0.0000 C   0  0  0  0  0  0  0  0  0  0  0  0
    4.9330   -1.3580    0.0000 C   0  0  1  0  0  0  0  0  0  0  0  0
    5.1170   -3.2670    0.0000 O   0  0  0  0  0  0  0  0  0  0  0  0
    6.5750   -2.8750    0.0000 O   0  0  0  0  0  0  0  0  0  0  0  0
    6.2330   -6.6170    0.0000 C   0  0  0  0  0  0  0  0  0  0  0  0
    6.6120   -5.9670    0.0000 N   0  0  0  0  0  0  0  0  0  0  0  0
    7.2210   -1.0830    0.0000 O   0  0  0  0  0  0  0  0  0  0  0  0
    7.2210   -2.3790    0.0000 N   0  0  0  0  0  0  0  0  0  0  0  0
    6.6080   -7.2620    0.0000 O   0  0  0  0  0  0  0  0  0  0  0  0
    6.7630   -3.9940    0.0000 C   0  0  0  0  0  0  0  0  0  0  0  0
    5.5080   -4.3280    0.0000 C   0  0  0  0  0  0  0  0  0  0  0  0
    6.4240   -5.2480    0.0000 C   0  0  0  0  0  0  0  0  0  0  0  0
    5.6970   -5.0500    0.0000 C   0  0  0  0  0  0  0  0  0  0  0  0
    6.9560   -4.7130    0.0000 C   0  0  0  0  0  0  0  0  0  0  0  0
    7.9710   -2.3790    0.0000 O   0  0  0  0  0  0  0  0  0  0  0  0
    4.2210   -2.3460    0.0000 C   0  0  0  0  0  0  0  0  0  0  0  0
    4.2140   -1.1280    0.0000 C   0  0  0  0  0  0  0  0  0  0  0  0
    3.7740   -1.7430    0.0000 C   0  0  0  0  0  0  0  0  0  0  0  0
    5.4830   -6.6120    0.0000 C   0  0  0  0  0  0  0  0  0  0  0  0
    4.9300   -0.3580    0.0000 H   0  0  0  0  0  0  0  0  0  0  0  0
    4.9390   -3.1170    0.0000 H   0  0  0  0  0  0  0  0  0  0  0  0
  8 23  1  0  0  0  0
 23 24  1  0  0  0  0
 24 22  1  0  0  0  0
 22  5  1  0  0  0  0
  8  5  1  0  0  0  0
  5  1  1  0  0  0  0
  1  3  1  0  0  0  0
  3  6  1  0  0  0  0
  6  8  1  0  0  0  0
  3  4  1  6  0  0  0
  1  2  1  0  0  0  0
  2  9  2  0  0  0  0
  2 10  2  0  0  0  0
  2  7  1  0  0  0  0
  4 13  2  0  0  0  0
  4 14  1  0  0  0  0
 14 21  1  0  0  0  0
  7 17  2  0  0  0  0
 17 19  1  0  0  0  0
 19 18  2  0  0  0  0
 20 16  2  0  0  0  0
 16  7  1  0  0  0  0
 20 18  1  0  0  0  0
 18 12  1  0  0  0  0
 12 11  1  0  0  0  0
 11 15  2  0  0  0  0
 11 25  1  0  0  0  0
  8 26  1  1  0  0  0
  5 27  1  1  0  0  0
M  END
>  <ID_NEW>
CPDMM2265

>  <pIC50>
5.552841968657781

$$$$

  SciTegic12180812512D

 32 35  0  0  0  0            999 V2000
   -2.7150    2.4249    0.0000 N   0  0
   -5.8317    2.4894    0.0000 C   0  0
   -5.5437    1.7138    0.0000 C   0  0
   -4.7295    1.5768    0.0000 C   0  0
   -5.3090    3.1250    0.0000 C   0  0
   -4.2018    2.2175    0.0000 C   0  0
   -4.4958    2.9917    0.0000 C   0  0
   -4.0733    3.7106    0.0000 C   0  0
   -3.4071    1.9648    0.0000 C   0  0
   -3.2514    3.8311    0.0000 C   0  0
   -2.6487    3.2593    0.0000 C   0  0
   -3.2908    1.1480    0.0000 C   0  0
   -3.9399    0.6390    0.0000 O   0  0
   -2.5253    0.8404    0.0000 O   0  0
   -2.0039    2.0067    0.0000 S   0  0
   -1.2861    2.4134    0.0000 C   0  0
   -2.0105    1.1817    0.0000 O   0  0
   -0.5790    1.9927    0.0000 C   0  0
    0.1383    2.3987    0.0000 C   0  0
    0.1454    3.2246    0.0000 C   0  0
   -0.5707    3.6427    0.0000 C   0  0
   -1.2851    3.2342    0.0000 C   0  0
    0.8626    3.6322    0.0000 O   0  0
    1.5743    3.2149    0.0000 C   0  0
    1.5667    2.3906    0.0000 C   0  0
    2.2775    1.9734    0.0000 C   0  0
    2.9957    2.3811    0.0000 C   0  0
    2.9987    3.2104    0.0000 C   0  0
    2.2872    3.6239    0.0000 C   0  0
   -2.2110    2.8053    0.0000 O   0  0
    3.7079    1.9647    0.0000 C   0  0
    4.4226    1.5444    0.0000 N   0  0
 12 13  2  0
 12 14  1  0
  1 15  1  0
 15 16  1  0
 27 31  1  0
 15 30  2  0
 15 17  2  0
 16 18  2  0
 18 19  1  0
 19 20  2  0
 20 21  1  0
 21 22  2  0
 22 16  1  0
 20 23  1  0
 23 24  1  0
 24 25  2  0
 25 26  1  0
 26 27  2  0
 27 28  1  0
 28 29  2  0
 29 24  1  0
  2  3  2  0
  3  4  1  0
  4  6  2  0
  7  5  2  0
  5  2  1  0
  6  7  1  0
  7  8  1  0
  6  9  1  0
  8 10  1  0
  9  1  1  0
 10 11  1  0
  1 11  1  0
  9 12  1  0
 31 32  3  0
M  STY  1   1 SUP
M  SLB  1   1   1
M  SAL   1  2  31  32
M  SBL   1  1   5
M  SMT   1 CN
M  SBV   1   5   -0.7100    0.4200
M  END
>  <ID_NEW>
CPDMM2266

>  <pIC50>
5.535121937308498

$$$$

  -MTS-   10172316422D 0   0.00000     0.00000     0

 31 34  0  0  1  0  0  0  0  0999 V2000
   -2.9330    2.1500    0.0000 N   0  0  0  0  0  0  0  0  0  0  0  0
   -5.8310    3.3000    0.0000 C   0  0  0  0  0  0  0  0  0  0  0  0
   -5.8320    2.4730    0.0000 C   0  0  0  0  0  0  0  0  0  0  0  0
   -5.1170    2.0600    0.0000 C   0  0  0  0  0  0  0  0  0  0  0  0
   -5.1190    3.7130    0.0000 C   0  0  0  0  0  0  0  0  0  0  0  0
   -4.3980    2.4760    0.0000 C   0  0  0  0  0  0  0  0  0  0  0  0
   -4.4030    3.3040    0.0000 C   0  0  0  0  0  0  0  0  0  0  0  0
   -3.7560    3.8300    0.0000 C   0  0  0  0  0  0  0  0  0  0  0  0
   -3.7420    1.9610    0.0000 C   0  0  1  0  0  0  0  0  0  0  0  0
   -2.9440    3.6550    0.0000 C   0  0  0  0  0  0  0  0  0  0  0  0
   -2.5790    2.9090    0.0000 C   0  0  0  0  0  0  0  0  0  0  0  0
   -3.9200    1.1560    0.0000 C   0  0  0  0  0  0  0  0  0  0  0  0
   -4.7070    0.9070    0.0000 N   0  0  0  0  0  0  0  0  0  0  0  0
   -3.3120    0.5980    0.0000 O   0  0  0  0  0  0  0  0  0  0  0  0
   -4.8850    0.1010    0.0000 O   0  0  0  0  0  0  0  0  0  0  0  0
   -2.4130    1.5100    0.0000 S   0  0  0  0  0  0  0  0  0  0  0  0
   -1.6210    1.7290    0.0000 C   0  0  0  0  0  0  0  0  0  0  0  0
   -3.2170    1.3000    0.0000 O   0  0  0  0  0  0  0  0  0  0  0  0
   -2.4210    0.6870    0.0000 O   0  0  0  0  0  0  0  0  0  0  0  0
   -1.0360    1.1500    0.0000 C   0  0  0  0  0  0  0  0  0  0  0  0
   -0.2450    1.3690    0.0000 C   0  0  0  0  0  0  0  0  0  0  0  0
   -0.0380    2.1650    0.0000 C   0  0  0  0  0  0  0  0  0  0  0  0
   -0.6290    2.7430    0.0000 C   0  0  0  0  0  0  0  0  0  0  0  0
   -1.4180    2.5210    0.0000 C   0  0  0  0  0  0  0  0  0  0  0  0
    0.7570    2.3860    0.0000 C   0  0  0  0  0  0  0  0  0  0  0  0
    1.3450    1.8080    0.0000 C   0  0  0  0  0  0  0  0  0  0  0  0
    2.1390    2.0280    0.0000 C   0  0  0  0  0  0  0  0  0  0  0  0
    2.3450    2.8280    0.0000 C   0  0  0  0  0  0  0  0  0  0  0  0
    1.7520    3.4070    0.0000 C   0  0  0  0  0  0  0  0  0  0  0  0
    0.9600    3.1830    0.0000 C   0  0  0  0  0  0  0  0  0  0  0  0
    3.1400    3.0500    0.0000 Cl  0  0  0  0  0  0  0  0  0  0  0  0
  2  3  2  0  0  0  0
  3  4  1  0  0  0  0
  4  6  2  0  0  0  0
  7  5  2  0  0  0  0
  5  2  1  0  0  0  0
  6  7  1  0  0  0  0
  7  8  1  0  0  0  0
  6  9  1  0  0  0  0
  8 10  1  0  0  0  0
  9  1  1  0  0  0  0
 10 11  1  0  0  0  0
  1 11  1  0  0  0  0
  9 12  1  6  0  0  0
 12 13  1  0  0  0  0
 12 14  2  0  0  0  0
 13 15  1  0  0  0  0
  1 16  1  0  0  0  0
 16 17  1  0  0  0  0
 16 18  2  0  0  0  0
 16 19  2  0  0  0  0
 17 20  2  0  0  0  0
 20 21  1  0  0  0  0
 21 22  2  0  0  0  0
 22 23  1  0  0  0  0
 23 24  2  0  0  0  0
 24 17  1  0  0  0  0
 22 25  1  0  0  0  0
 25 26  2  0  0  0  0
 26 27  1  0  0  0  0
 27 28  2  0  0  0  0
 28 29  1  0  0  0  0
 29 30  2  0  0  0  0
 30 25  1  0  0  0  0
 28 31  1  0  0  0  0
M  END
>  <ID_NEW>
CPDMM2267

>  <pIC50>
5.522331878686788

$$$$

  -MTS-   10172316422D 0   0.00000     0.00000     0

 34 37  0  0  1  0  0  0  0  0999 V2000
   -0.7860    2.6750    0.0000 C   0  0  0  0  0  0  0  0  0  0  0  0
   -1.0250    1.8830    0.0000 C   0  0  0  0  0  0  0  0  0  0  0  0
   -0.4590    1.2820    0.0000 C   0  0  0  0  0  0  0  0  0  0  0  0
    0.3460    1.4730    0.0000 C   0  0  0  0  0  0  0  0  0  0  0  0
    0.5820    2.2690    0.0000 C   0  0  0  0  0  0  0  0  0  0  0  0
    0.0140    2.8660    0.0000 C   0  0  0  0  0  0  0  0  0  0  0  0
    1.3840    2.4620    0.0000 C   0  0  0  0  0  0  0  0  0  0  0  0
    1.9490    1.8620    0.0000 C   0  0  0  0  0  0  0  0  0  0  0  0
    2.7500    2.0540    0.0000 C   0  0  0  0  0  0  0  0  0  0  0  0
    2.9850    2.8460    0.0000 C   0  0  0  0  0  0  0  0  0  0  0  0
    2.4120    3.4450    0.0000 C   0  0  0  0  0  0  0  0  0  0  0  0
    1.6120    3.2500    0.0000 C   0  0  0  0  0  0  0  0  0  0  0  0
    3.7870    3.0400    0.0000 C   0  0  0  0  0  0  0  0  0  0  0  0
    4.3560    2.4420    0.0000 C   0  0  0  0  0  0  0  0  0  0  0  0
    4.0200    3.8310    0.0000 C   0  0  0  0  0  0  0  0  0  0  0  0
   -2.0040    1.6920    0.0000 S   0  0  0  0  0  0  0  0  0  0  0  0
   -5.8330    2.8620    0.0000 C   0  0  0  0  0  0  0  0  0  0  0  0
   -5.8330    2.0370    0.0000 C   0  0  0  0  0  0  0  0  0  0  0  0
   -5.1210    1.6290    0.0000 C   0  0  0  0  0  0  0  0  0  0  0  0
   -5.1210    3.2790    0.0000 C   0  0  0  0  0  0  0  0  0  0  0  0
   -4.4090    2.8620    0.0000 C   0  0  1  0  0  0  0  0  0  0  0  0
   -4.4130    2.0370    0.0000 C   0  0  2  0  0  0  0  0  0  0  0  0
   -3.7040    1.6240    0.0000 C   0  0  2  0  0  0  0  0  0  0  0  0
   -2.9870    2.0310    0.0000 N   0  0  0  0  0  0  0  0  0  0  0  0
   -2.9840    2.8560    0.0000 C   0  0  0  0  0  0  0  0  0  0  0  0
   -3.6970    3.2740    0.0000 C   0  0  0  0  0  0  0  0  0  0  0  0
   -3.7070    0.7980    0.0000 C   0  0  0  0  0  0  0  0  0  0  0  0
   -4.4240    0.3890    0.0000 N   0  0  0  0  0  0  0  0  0  0  0  0
   -2.9950    0.3810    0.0000 O   0  0  0  0  0  0  0  0  0  0  0  0
   -1.4920    0.7920    0.0000 O   0  0  0  0  0  0  0  0  0  0  0  0
   -2.7460    0.9580    0.0000 O   0  0  0  0  0  0  0  0  0  0  0  0
   -4.4290   -0.4330    0.0000 O   0  0  0  0  0  0  0  0  0  0  0  0
   -4.4150    1.0370    0.0000 H   0  0  0  0  0  0  0  0  0  0  0  0
   -4.4070    3.8620    0.0000 H   0  0  0  0  0  0  0  0  0  0  0  0
 13 14  1  0  0  0  0
 13 15  1  0  0  0  0
  1  2  2  0  0  0  0
  2  3  1  0  0  0  0
  3  4  2  0  0  0  0
  4  5  1  0  0  0  0
  5  6  2  0  0  0  0
  6  1  1  0  0  0  0
  5  7  1  0  0  0  0
  7  8  2  0  0  0  0
  8  9  1  0  0  0  0
  9 10  2  0  0  0  0
 10 11  1  0  0  0  0
 11 12  2  0  0  0  0
 12  7  1  0  0  0  0
 10 13  1  0  0  0  0
 25 26  1  0  0  0  0
 27 28  1  0  0  0  0
 27 29  2  0  0  0  0
 23 27  1  6  0  0  0
 16 30  2  0  0  0  0
 17 18  1  0  0  0  0
 17 20  1  0  0  0  0
 18 19  1  0  0  0  0
 19 22  1  0  0  0  0
 21 20  1  0  0  0  0
 21 22  1  0  0  0  0
 21 26  1  0  0  0  0
 22 23  1  0  0  0  0
 23 24  1  0  0  0  0
 16 31  2  0  0  0  0
 24 25  1  0  0  0  0
 24 16  1  0  0  0  0
 16  2  1  0  0  0  0
 28 32  1  0  0  0  0
 22 33  1  1  0  0  0
 21 34  1  1  0  0  0
M  END
>  <ID_NEW>
CPDMM2268

>  <pIC50>
5.515034705072427

$$$$

  SciTegic12180812542D

 32 35  0  0  0  0            999 V2000
    0.7861   -2.7875    0.0000 C   0  0
    0.7849   -3.6148    0.0000 C   0  0
    1.4997   -4.0277    0.0000 C   0  0
    1.4979   -2.3747    0.0000 C   0  0
    2.2133   -2.7838    0.0000 C   0  0
    2.2121   -3.6123    0.0000 C   0  0
    2.9251   -4.0253    0.0000 C   0  0
    3.6438   -3.6143    0.0000 N   0  0
    3.6449   -2.7858    0.0000 C   0  0
    2.9274   -2.3683    0.0000 C   0  0
    2.9228   -4.8503    0.0000 C   0  0
    2.2072   -5.2608    0.0000 O   0  0
    3.6361   -5.2648    0.0000 O   0  0
    1.5014   -4.8527    0.0000 O   0  0
    1.4955   -1.5497    0.0000 F   0  0
    0.7878   -5.2667    0.0000 C   0  0
    4.3542   -4.0250    0.0000 S   0  0
    4.9375   -3.4375    0.0000 O   0  0
    3.7667   -4.6083    0.0000 O   0  0
    5.0676   -4.4392    0.0000 C   0  0
    5.0619   -5.2636    0.0000 C   0  0
    5.7745   -5.6777    0.0000 C   0  0
    6.4910   -5.2669    0.0000 C   0  0
    6.4903   -4.4377    0.0000 C   0  0
    5.7771   -4.0272    0.0000 C   0  0
    7.2027   -5.6791    0.0000 C   0  0
    7.2005   -6.5052    0.0000 C   0  0
    7.9136   -6.9185    0.0000 C   0  0
    8.6296   -6.5067    0.0000 C   0  0
    8.6278   -5.6774    0.0000 C   0  0
    7.9141   -5.2679    0.0000 C   0  0
    9.3441   -6.9190    0.0000 Cl  0  0
  4 15  1  0
 14 16  1  0
  8 17  1  0
  8  9  1  0
 17 18  2  0
  9 10  1  0
 17 19  2  0
  5  6  1  0
 17 20  1  0
  7 11  1  0
 20 21  2  0
 11 12  2  0
 21 22  1  0
  2  3  1  0
 22 23  2  0
 11 13  1  0
 23 24  1  0
  3  6  2  0
 24 25  2  0
 25 20  1  0
  1  2  2  0
  5  4  2  0
 26 27  2  0
  3 14  1  0
 27 28  1  0
  4  1  1  0
 28 29  2  0
  5 10  1  0
 29 30  1  0
  6  7  1  0
 30 31  2  0
 31 26  1  0
 23 26  1  0
  7  8  1  0
 29 32  1  0
M  END
>  <ID_NEW>
CPDMM2269

>  <pIC50>
5.494850021680094

$$$$

  -MTS-   10172316422D 0   0.00000     0.00000     0

 25 27  0  0  1  0  0  0  0  0999 V2000
    5.8980   -2.6280    0.0000 N   0  0  0  0  0  0  0  0  0  0  0  0
    6.0870   -3.3500    0.0000 S   0  0  0  0  0  0  0  0  0  0  0  0
    6.3370   -2.0170    0.0000 C   0  0  1  0  0  0  0  0  0  0  0  0
    7.0870   -2.0170    0.0000 C   0  0  0  0  0  0  0  0  0  0  0  0
    5.1750   -2.3960    0.0000 C   0  0  1  0  0  0  0  0  0  0  0  0
    5.8920   -1.4020    0.0000 C   0  0  0  0  0  0  0  0  0  0  0  0
    6.2790   -4.0790    0.0000 C   0  0  0  0  0  0  0  0  0  0  0  0
    5.1710   -1.6410    0.0000 C   0  0  1  0  0  0  0  0  0  0  0  0
    5.3580   -3.5500    0.0000 O   0  0  0  0  0  0  0  0  0  0  0  0
    6.8170   -3.1540    0.0000 O   0  0  0  0  0  0  0  0  0  0  0  0
    7.2790   -1.2870    0.0000 O   0  0  0  0  0  0  0  0  0  0  0  0
    7.7370   -2.3920    0.0000 N   0  0  0  0  0  0  0  0  0  0  0  0
    5.7440   -4.6080    0.0000 C   0  0  0  0  0  0  0  0  0  0  0  0
    7.0030   -4.2710    0.0000 C   0  0  0  0  0  0  0  0  0  0  0  0
    6.6640   -5.5320    0.0000 C   0  0  0  0  0  0  0  0  0  0  0  0
    5.9390   -5.3360    0.0000 C   0  0  0  0  0  0  0  0  0  0  0  0
    7.1980   -4.9970    0.0000 C   0  0  0  0  0  0  0  0  0  0  0  0
    7.7330   -3.1420    0.0000 O   0  0  0  0  0  0  0  0  0  0  0  0
    4.4580   -2.6290    0.0000 C   0  0  0  0  0  0  0  0  0  0  0  0
    4.4520   -1.4110    0.0000 C   0  0  0  0  0  0  0  0  0  0  0  0
    4.0120   -2.0230    0.0000 C   0  0  0  0  0  0  0  0  0  0  0  0
    7.0480   -6.9760    0.0000 N   0  0  0  0  0  0  0  0  0  0  0  0
    6.8580   -6.2540    0.0000 C   0  0  0  0  0  0  0  0  0  0  0  0
    5.1660   -0.6410    0.0000 H   0  0  0  0  0  0  0  0  0  0  0  0
    5.1770   -3.3960    0.0000 H   0  0  0  0  0  0  0  0  0  0  0  0
 20 21  1  0  0  0  0
 21 19  1  0  0  0  0
 19  5  1  0  0  0  0
  4 11  2  0  0  0  0
  8  5  1  0  0  0  0
  4 12  1  0  0  0  0
 12 18  1  0  0  0  0
  7 13  2  0  0  0  0
 13 16  1  0  0  0  0
 16 15  2  0  0  0  0
 15 17  1  0  0  0  0
  5  1  1  0  0  0  0
 17 14  2  0  0  0  0
 14  7  1  0  0  0  0
 15 23  1  0  0  0  0
  1  3  1  0  0  0  0
  3  6  1  0  0  0  0
  6  8  1  0  0  0  0
  3  4  1  6  0  0  0
  1  2  1  0  0  0  0
  2  9  2  0  0  0  0
  2 10  2  0  0  0  0
  8 20  1  0  0  0  0
  2  7  1  0  0  0  0
 23 22  3  0  0  0  0
  8 24  1  1  0  0  0
  5 25  1  1  0  0  0
M  END
>  <ID_NEW>
CPDMM2270

>  <pIC50>
5.431798275933004

$$$$

  -MTS-   10172316422D 0   0.00000     0.00000     0

 32 35  0  0  1  0  0  0  0  0999 V2000
   -0.0950    2.1440    0.0000 C   0  0  0  0  0  0  0  0  0  0  0  0
    0.6570    2.1180    0.0000 O   0  0  0  0  0  0  0  0  0  0  0  0
   -0.4490    2.8080    0.0000 C   0  0  0  0  0  0  0  0  0  0  0  0
   -0.4930    1.5060    0.0000 C   0  0  0  0  0  0  0  0  0  0  0  0
    1.0190    1.4530    0.0000 C   0  0  0  0  0  0  0  0  0  0  0  0
   -1.2010    2.8340    0.0000 C   0  0  0  0  0  0  0  0  0  0  0  0
   -1.2440    1.5270    0.0000 C   0  0  0  0  0  0  0  0  0  0  0  0
    1.7670    1.4290    0.0000 C   0  0  0  0  0  0  0  0  0  0  0  0
    0.6210    0.8150    0.0000 O   0  0  0  0  0  0  0  0  0  0  0  0
   -1.5990    2.1960    0.0000 C   0  0  0  0  0  0  0  0  0  0  0  0
    2.1240    0.7630    0.0000 C   0  0  0  0  0  0  0  0  0  0  0  0
    2.1670    2.0700    0.0000 C   0  0  0  0  0  0  0  0  0  0  0  0
   -2.3590    2.2150    0.0000 S   0  0  0  0  0  0  0  0  0  0  0  0
    2.8700    0.7410    0.0000 C   0  0  0  0  0  0  0  0  0  0  0  0
    2.9220    2.0420    0.0000 C   0  0  0  0  0  0  0  0  0  0  0  0
   -2.3850    1.4630    0.0000 O   0  0  0  0  0  0  0  0  0  0  0  0
   -2.3310    2.9700    0.0000 O   0  0  0  0  0  0  0  0  0  0  0  0
    3.2700    1.3810    0.0000 C   0  0  0  0  0  0  0  0  0  0  0  0
   -4.4570    2.6250    0.0000 C   0  0  0  0  0  0  0  0  0  0  0  0
   -4.4570    3.4250    0.0000 C   0  0  0  0  0  0  0  0  0  0  0  0
   -3.7670    2.2210    0.0000 C   0  0  1  0  0  0  0  0  0  0  0  0
   -5.1420    2.2270    0.0000 C   0  0  0  0  0  0  0  0  0  0  0  0
   -3.7670    3.8330    0.0000 C   0  0  0  0  0  0  0  0  0  0  0  0
   -5.1420    3.8230    0.0000 C   0  0  0  0  0  0  0  0  0  0  0  0
   -3.0720    2.6250    0.0000 N   0  0  0  0  0  0  0  0  0  0  0  0
   -3.7670    1.4320    0.0000 C   0  0  0  0  0  0  0  0  0  0  0  0
   -5.8310    2.6250    0.0000 C   0  0  0  0  0  0  0  0  0  0  0  0
   -3.0720    3.4250    0.0000 C   0  0  0  0  0  0  0  0  0  0  0  0
   -5.8310    3.4250    0.0000 C   0  0  0  0  0  0  0  0  0  0  0  0
   -4.4570    1.0450    0.0000 N   0  0  0  0  0  0  0  0  0  0  0  0
   -3.0840    1.0180    0.0000 O   0  0  0  0  0  0  0  0  0  0  0  0
   -4.4620    0.2210    0.0000 O   0  0  0  0  0  0  0  0  0  0  0  0
  1  2  1  0  0  0  0
  1  3  2  0  0  0  0
  1  4  1  0  0  0  0
  2  5  1  0  0  0  0
  3  6  1  0  0  0  0
  4  7  2  0  0  0  0
  5  8  1  0  0  0  0
  5  9  2  0  0  0  0
  6 10  2  0  0  0  0
  8 11  2  0  0  0  0
  8 12  1  0  0  0  0
 10 13  1  0  0  0  0
 11 14  1  0  0  0  0
 12 15  2  0  0  0  0
 13 16  2  0  0  0  0
 13 17  2  0  0  0  0
 14 18  2  0  0  0  0
  7 10  1  0  0  0  0
 15 18  1  0  0  0  0
 19 20  2  0  0  0  0
 19 21  1  0  0  0  0
 19 22  1  0  0  0  0
 20 23  1  0  0  0  0
 20 24  1  0  0  0  0
 21 25  1  0  0  0  0
 21 26  1  1  0  0  0
 22 27  2  0  0  0  0
 23 28  1  0  0  0  0
 24 29  2  0  0  0  0
 26 30  1  0  0  0  0
 26 31  2  0  0  0  0
 25 28  1  0  0  0  0
 27 29  1  0  0  0  0
 25 13  1  0  0  0  0
 30 32  1  0  0  0  0
M  END
>  <ID_NEW>
CPDMM2271

>  <pIC50>
5.431677629252498

$$$$

  -MTS-   10172316422D 0   0.00000     0.00000     0

 32 35  0  0  1  0  0  0  0  0999 V2000
   -2.9330    2.1500    0.0000 N   0  0  0  0  0  0  0  0  0  0  0  0
   -5.8310    3.3000    0.0000 C   0  0  0  0  0  0  0  0  0  0  0  0
   -5.8320    2.4730    0.0000 C   0  0  0  0  0  0  0  0  0  0  0  0
   -5.1170    2.0600    0.0000 C   0  0  0  0  0  0  0  0  0  0  0  0
   -5.1190    3.7130    0.0000 C   0  0  0  0  0  0  0  0  0  0  0  0
   -4.3980    2.4760    0.0000 C   0  0  0  0  0  0  0  0  0  0  0  0
   -4.4030    3.3040    0.0000 C   0  0  0  0  0  0  0  0  0  0  0  0
   -3.7560    3.8300    0.0000 C   0  0  0  0  0  0  0  0  0  0  0  0
   -3.7420    1.9610    0.0000 C   0  0  1  0  0  0  0  0  0  0  0  0
   -2.9440    3.6550    0.0000 C   0  0  0  0  0  0  0  0  0  0  0  0
   -2.5790    2.9090    0.0000 C   0  0  0  0  0  0  0  0  0  0  0  0
   -3.9200    1.1560    0.0000 C   0  0  0  0  0  0  0  0  0  0  0  0
   -4.7070    0.9070    0.0000 N   0  0  0  0  0  0  0  0  0  0  0  0
   -3.3120    0.5980    0.0000 O   0  0  0  0  0  0  0  0  0  0  0  0
   -4.8850    0.1010    0.0000 O   0  0  0  0  0  0  0  0  0  0  0  0
   -2.4130    1.5100    0.0000 S   0  0  0  0  0  0  0  0  0  0  0  0
   -1.6210    1.7290    0.0000 C   0  0  0  0  0  0  0  0  0  0  0  0
   -3.2170    1.3000    0.0000 O   0  0  0  0  0  0  0  0  0  0  0  0
   -2.4210    0.6870    0.0000 O   0  0  0  0  0  0  0  0  0  0  0  0
   -1.0360    1.1500    0.0000 C   0  0  0  0  0  0  0  0  0  0  0  0
   -0.2450    1.3690    0.0000 C   0  0  0  0  0  0  0  0  0  0  0  0
   -0.0380    2.1650    0.0000 C   0  0  0  0  0  0  0  0  0  0  0  0
   -0.6290    2.7430    0.0000 C   0  0  0  0  0  0  0  0  0  0  0  0
   -1.4180    2.5210    0.0000 C   0  0  0  0  0  0  0  0  0  0  0  0
    0.7570    2.3860    0.0000 C   0  0  0  0  0  0  0  0  0  0  0  0
    1.3450    1.8080    0.0000 C   0  0  0  0  0  0  0  0  0  0  0  0
    2.1390    2.0280    0.0000 C   0  0  0  0  0  0  0  0  0  0  0  0
    2.3450    2.8280    0.0000 C   0  0  0  0  0  0  0  0  0  0  0  0
    1.7520    3.4070    0.0000 C   0  0  0  0  0  0  0  0  0  0  0  0
    0.9600    3.1830    0.0000 C   0  0  0  0  0  0  0  0  0  0  0  0
    3.1360    3.0540    0.0000 C   0  0  0  0  0  0  0  0  0  0  0  0
    3.9310    3.2760    0.0000 N   0  0  0  0  0  0  0  0  0  0  0  0
  2  3  2  0  0  0  0
  3  4  1  0  0  0  0
  4  6  2  0  0  0  0
  7  5  2  0  0  0  0
  5  2  1  0  0  0  0
  6  7  1  0  0  0  0
  7  8  1  0  0  0  0
  6  9  1  0  0  0  0
  8 10  1  0  0  0  0
  9  1  1  0  0  0  0
 10 11  1  0  0  0  0
  1 11  1  0  0  0  0
  9 12  1  6  0  0  0
 12 13  1  0  0  0  0
 12 14  2  0  0  0  0
 13 15  1  0  0  0  0
  1 16  1  0  0  0  0
 16 17  1  0  0  0  0
 16 18  2  0  0  0  0
 16 19  2  0  0  0  0
 17 20  2  0  0  0  0
 20 21  1  0  0  0  0
 21 22  2  0  0  0  0
 22 23  1  0  0  0  0
 23 24  2  0  0  0  0
 24 17  1  0  0  0  0
 22 25  1  0  0  0  0
 25 26  2  0  0  0  0
 26 27  1  0  0  0  0
 27 28  2  0  0  0  0
 28 29  1  0  0  0  0
 29 30  2  0  0  0  0
 30 25  1  0  0  0  0
 31 32  3  0  0  0  0
 28 31  1  0  0  0  0
M  END
>  <ID_NEW>
CPDMM2272

>  <pIC50>
5.429344298288018

$$$$

  -MTS-   10172316422D 0   0.00000     0.00000     0

 32 35  0  0  1  0  0  0  0  0999 V2000
   -1.5520    1.4240    0.0000 C   0  0  0  0  0  0  0  0  0  0  0  0
   -1.5530    0.5970    0.0000 C   0  0  0  0  0  0  0  0  0  0  0  0
   -0.8390    0.1840    0.0000 C   0  0  0  0  0  0  0  0  0  0  0  0
   -0.1220    0.5970    0.0000 C   0  0  0  0  0  0  0  0  0  0  0  0
   -0.1250    1.4280    0.0000 C   0  0  0  0  0  0  0  0  0  0  0  0
   -0.8400    1.8370    0.0000 C   0  0  0  0  0  0  0  0  0  0  0  0
   -2.2680    0.1850    0.0000 S   0  0  0  0  0  0  0  0  0  0  0  0
   -2.8590   -0.3960    0.0000 O   0  0  0  0  0  0  0  0  0  0  0  0
   -1.6880   -0.3960    0.0000 O   0  0  0  0  0  0  0  0  0  0  0  0
   -5.8330    1.4210    0.0000 C   0  0  0  0  0  0  0  0  0  0  0  0
   -5.8330    0.5960    0.0000 C   0  0  0  0  0  0  0  0  0  0  0  0
   -5.1210    0.1870    0.0000 C   0  0  0  0  0  0  0  0  0  0  0  0
   -5.1210    1.8370    0.0000 C   0  0  0  0  0  0  0  0  0  0  0  0
   -4.4090    1.4210    0.0000 C   0  0  0  0  0  0  0  0  0  0  0  0
   -4.4080    0.5960    0.0000 C   0  0  0  0  0  0  0  0  0  0  0  0
   -3.6970    0.1860    0.0000 C   0  0  1  0  0  0  0  0  0  0  0  0
   -2.9830    0.5980    0.0000 N   0  0  0  0  0  0  0  0  0  0  0  0
   -2.9840    1.4230    0.0000 C   0  0  0  0  0  0  0  0  0  0  0  0
   -3.6990    1.8360    0.0000 C   0  0  0  0  0  0  0  0  0  0  0  0
   -3.6970   -0.6380    0.0000 C   0  0  0  0  0  0  0  0  0  0  0  0
   -4.4110   -1.0520    0.0000 O   0  0  0  0  0  0  0  0  0  0  0  0
   -2.9820   -1.0520    0.0000 O   0  0  0  0  0  0  0  0  0  0  0  0
    0.5880    1.8430    0.0000 C   0  0  0  0  0  0  0  0  0  0  0  0
    1.3010    1.4310    0.0000 C   0  0  0  0  0  0  0  0  0  0  0  0
    2.0130    1.8460    0.0000 C   0  0  0  0  0  0  0  0  0  0  0  0
    2.0110    2.6720    0.0000 C   0  0  0  0  0  0  0  0  0  0  0  0
    1.2900    3.0810    0.0000 C   0  0  0  0  0  0  0  0  0  0  0  0
    0.5800    2.6640    0.0000 C   0  0  0  0  0  0  0  0  0  0  0  0
    2.7230    3.0880    0.0000 S   0  0  0  0  0  0  0  0  0  0  0  0
    3.4330    3.5080    0.0000 C   0  0  0  0  0  0  0  0  0  0  0  0
    3.1410    2.3770    0.0000 O   0  0  0  0  0  0  0  0  0  0  0  0
    2.3050    3.7990    0.0000 O   0  0  0  0  0  0  0  0  0  0  0  0
  1  2  2  0  0  0  0
  2  3  1  0  0  0  0
  3  4  2  0  0  0  0
  4  5  1  0  0  0  0
  5  6  2  0  0  0  0
  6  1  1  0  0  0  0
  2  7  1  0  0  0  0
  7  8  2  0  0  0  0
  7  9  2  0  0  0  0
 10 11  2  0  0  0  0
 10 13  1  0  0  0  0
 11 12  1  0  0  0  0
 12 15  2  0  0  0  0
 14 13  2  0  0  0  0
 14 15  1  0  0  0  0
 14 19  1  0  0  0  0
 15 16  1  0  0  0  0
 16 17  1  0  0  0  0
 17 18  1  0  0  0  0
 18 19  1  0  0  0  0
 16 20  1  1  0  0  0
 20 21  1  0  0  0  0
 20 22  2  0  0  0  0
 17  7  1  0  0  0  0
  5 23  1  0  0  0  0
 23 24  2  0  0  0  0
 24 25  1  0  0  0  0
 25 26  2  0  0  0  0
 26 27  1  0  0  0  0
 27 28  2  0  0  0  0
 28 23  1  0  0  0  0
 26 29  1  0  0  0  0
 29 30  1  0  0  0  0
 29 31  2  0  0  0  0
 29 32  2  0  0  0  0
M  END
>  <ID_NEW>
CPDMM2273

>  <pIC50>
5.41345005076065

$$$$

  -MTS-   10172316422D 0   0.00000     0.00000     0

 33 36  0  0  1  0  0  0  0  0999 V2000
    2.6190   -3.8290    0.0000 C   0  0  0  0  0  0  0  0  0  0  0  0
    2.6180   -4.5810    0.0000 C   0  0  0  0  0  0  0  0  0  0  0  0
    3.2700   -4.9570    0.0000 C   0  0  0  0  0  0  0  0  0  0  0  0
    3.2690   -3.4580    0.0000 C   0  0  0  0  0  0  0  0  0  0  0  0
    3.9170   -3.8300    0.0000 C   0  0  0  0  0  0  0  0  0  0  0  0
    3.9210   -4.5840    0.0000 C   0  0  0  0  0  0  0  0  0  0  0  0
    4.5730   -4.9570    0.0000 C   0  0  2  0  0  0  0  0  0  0  0  0
    5.2310   -4.5820    0.0000 N   0  0  0  0  0  0  0  0  0  0  0  0
    5.2280   -3.8240    0.0000 C   0  0  0  0  0  0  0  0  0  0  0  0
    4.5710   -3.4450    0.0000 C   0  0  0  0  0  0  0  0  0  0  0  0
    4.5760   -5.7070    0.0000 C   0  0  0  0  0  0  0  0  0  0  0  0
    3.9290   -6.0840    0.0000 N   0  0  0  0  0  0  0  0  0  0  0  0
    5.2290   -6.0800    0.0000 O   0  0  0  0  0  0  0  0  0  0  0  0
    3.9210   -6.8330    0.0000 O   0  0  0  0  0  0  0  0  0  0  0  0
    5.8800   -4.9550    0.0000 S   0  0  0  0  0  0  0  0  0  0  0  0
    6.2500   -4.3000    0.0000 O   0  0  0  0  0  0  0  0  0  0  0  0
    5.5000   -5.6000    0.0000 O   0  0  0  0  0  0  0  0  0  0  0  0
    6.5290   -5.3280    0.0000 C   0  0  0  0  0  0  0  0  0  0  0  0
    6.5290   -6.0760    0.0000 C   0  0  0  0  0  0  0  0  0  0  0  0
    7.1810   -6.4490    0.0000 C   0  0  0  0  0  0  0  0  0  0  0  0
    7.8290   -6.0710    0.0000 C   0  0  0  0  0  0  0  0  0  0  0  0
    7.8240   -5.3170    0.0000 C   0  0  0  0  0  0  0  0  0  0  0  0
    7.1750   -4.9480    0.0000 C   0  0  0  0  0  0  0  0  0  0  0  0
    8.4830   -6.4430    0.0000 O   0  0  0  0  0  0  0  0  0  0  0  0
    9.1250   -6.0620    0.0000 C   0  0  0  0  0  0  0  0  0  0  0  0
    9.7790   -6.4330    0.0000 C   0  0  0  0  0  0  0  0  0  0  0  0
   10.4210   -6.0520    0.0000 C   0  0  0  0  0  0  0  0  0  0  0  0
   10.4130   -5.3030    0.0000 C   0  0  0  0  0  0  0  0  0  0  0  0
    9.7580   -4.9360    0.0000 C   0  0  0  0  0  0  0  0  0  0  0  0
    9.1150   -5.3190    0.0000 C   0  0  0  0  0  0  0  0  0  0  0  0
   11.0610   -4.9210    0.0000 Cl  0  0  0  0  0  0  0  0  0  0  0  0
    3.2700   -5.7090    0.0000 F   0  0  0  0  0  0  0  0  0  0  0  0
    3.2690   -2.7100    0.0000 C   0  0  0  0  0  0  0  0  0  0  0  0
  7  8  1  0  0  0  0
  8 15  1  0  0  0  0
  8  9  1  0  0  0  0
 15 16  2  0  0  0  0
  9 10  1  0  0  0  0
 15 17  2  0  0  0  0
  5  6  1  0  0  0  0
 15 18  1  0  0  0  0
 18 19  2  0  0  0  0
 19 20  1  0  0  0  0
  2  3  1  0  0  0  0
 20 21  2  0  0  0  0
  3  6  2  0  0  0  0
 21 22  1  0  0  0  0
  1  2  2  0  0  0  0
 22 23  2  0  0  0  0
 23 18  1  0  0  0  0
  5  4  2  0  0  0  0
 21 24  1  0  0  0  0
 24 25  1  0  0  0  0
  7 11  1  6  0  0  0
 25 26  2  0  0  0  0
  4  1  1  0  0  0  0
 26 27  1  0  0  0  0
 11 12  1  0  0  0  0
 27 28  2  0  0  0  0
  5 10  1  0  0  0  0
 28 29  1  0  0  0  0
 11 13  2  0  0  0  0
 29 30  2  0  0  0  0
 30 25  1  0  0  0  0
  6  7  1  0  0  0  0
 28 31  1  0  0  0  0
  3 32  1  0  0  0  0
 12 14  1  0  0  0  0
  4 33  1  0  0  0  0
M  END
>  <ID_NEW>
CPDMM2274

>  <pIC50>
5.404927697690745

$$$$

  -MTS-   10172316422D 0   0.00000     0.00000     0

 29 32  0  0  1  0  0  0  0  0999 V2000
   -5.7060    2.7210    0.0000 C   0  0  0  0  0  0  0  0  0  0  0  0
   -5.7070    1.8940    0.0000 C   0  0  0  0  0  0  0  0  0  0  0  0
   -4.9920    1.4810    0.0000 C   0  0  0  0  0  0  0  0  0  0  0  0
   -4.9940    3.1340    0.0000 C   0  0  0  0  0  0  0  0  0  0  0  0
   -4.2780    2.7250    0.0000 C   0  0  0  0  0  0  0  0  0  0  0  0
   -4.2750    1.8910    0.0000 C   0  0  0  0  0  0  0  0  0  0  0  0
   -3.5560    1.4800    0.0000 C   0  0  1  0  0  0  0  0  0  0  0  0
   -2.8350    1.8970    0.0000 N   0  0  0  0  0  0  0  0  0  0  0  0
   -2.8390    2.7300    0.0000 C   0  0  0  0  0  0  0  0  0  0  0  0
   -3.5630    3.1460    0.0000 C   0  0  0  0  0  0  0  0  0  0  0  0
   -3.5530    0.6550    0.0000 C   0  0  0  0  0  0  0  0  0  0  0  0
   -4.2650    0.2370    0.0000 O   0  0  0  0  0  0  0  0  0  0  0  0
   -2.8360    0.2410    0.0000 O   0  0  0  0  0  0  0  0  0  0  0  0
   -2.1200    1.4870    0.0000 S   0  0  0  0  0  0  0  0  0  0  0  0
   -2.8370    1.0790    0.0000 O   0  0  0  0  0  0  0  0  0  0  0  0
   -1.7120    0.7750    0.0000 O   0  0  0  0  0  0  0  0  0  0  0  0
   -1.3250    1.7040    0.0000 C   0  0  0  0  0  0  0  0  0  0  0  0
   -0.7400    1.1220    0.0000 C   0  0  0  0  0  0  0  0  0  0  0  0
    0.0540    1.3390    0.0000 C   0  0  0  0  0  0  0  0  0  0  0  0
    0.2630    2.1360    0.0000 C   0  0  0  0  0  0  0  0  0  0  0  0
   -0.3270    2.7170    0.0000 C   0  0  0  0  0  0  0  0  0  0  0  0
   -1.1190    2.4970    0.0000 C   0  0  0  0  0  0  0  0  0  0  0  0
    1.0590    2.3550    0.0000 O   0  0  0  0  0  0  0  0  0  0  0  0
    1.6460    1.7760    0.0000 C   0  0  0  0  0  0  0  0  0  0  0  0
    1.4350    0.9800    0.0000 C   0  0  0  0  0  0  0  0  0  0  0  0
    2.0220    0.4010    0.0000 C   0  0  0  0  0  0  0  0  0  0  0  0
    2.8180    0.6200    0.0000 C   0  0  0  0  0  0  0  0  0  0  0  0
    3.0250    1.4230    0.0000 C   0  0  0  0  0  0  0  0  0  0  0  0
    2.4370    1.9990    0.0000 N   0  0  0  0  0  0  0  0  0  0  0  0
  7  8  1  0  0  0  0
  8  9  1  0  0  0  0
  9 10  1  0  0  0  0
  7 11  1  1  0  0  0
 11 12  1  0  0  0  0
 11 13  2  0  0  0  0
  8 14  1  0  0  0  0
 14 15  2  0  0  0  0
 14 16  2  0  0  0  0
 14 17  1  0  0  0  0
 17 18  2  0  0  0  0
 18 19  1  0  0  0  0
 19 20  2  0  0  0  0
 20 21  1  0  0  0  0
 21 22  2  0  0  0  0
 22 17  1  0  0  0  0
 20 23  1  0  0  0  0
 23 24  1  0  0  0  0
 24 25  2  0  0  0  0
 25 26  1  0  0  0  0
 26 27  2  0  0  0  0
 27 28  1  0  0  0  0
 28 29  2  0  0  0  0
 29 24  1  0  0  0  0
  1  2  2  0  0  0  0
  2  3  1  0  0  0  0
  3  6  2  0  0  0  0
  5  4  2  0  0  0  0
  4  1  1  0  0  0  0
  5  6  1  0  0  0  0
  5 10  1  0  0  0  0
  6  7  1  0  0  0  0
M  END
>  <ID_NEW>
CPDMM2275

>  <pIC50>
5.397940008672037

$$$$

  -MTS-   10172316422D 0   0.00000     0.00000     0

 27 29  0  0  1  0  0  0  0  0999 V2000
    5.8980   -2.6280    0.0000 N   0  0  0  0  0  0  0  0  0  0  0  0
    6.0870   -3.3540    0.0000 S   0  0  0  0  0  0  0  0  0  0  0  0
    6.3370   -2.0170    0.0000 C   0  0  1  0  0  0  0  0  0  0  0  0
    7.0870   -2.0170    0.0000 C   0  0  0  0  0  0  0  0  0  0  0  0
    5.1750   -2.4000    0.0000 C   0  0  1  0  0  0  0  0  0  0  0  0
    5.8920   -1.4060    0.0000 C   0  0  0  0  0  0  0  0  0  0  0  0
    6.8580   -6.2540    0.0000 C   0  0  0  0  0  0  0  0  0  0  0  0
    6.2790   -4.0830    0.0000 C   0  0  0  0  0  0  0  0  0  0  0  0
    5.1710   -1.6410    0.0000 C   0  0  1  0  0  0  0  0  0  0  0  0
    5.3580   -3.5500    0.0000 O   0  0  0  0  0  0  0  0  0  0  0  0
    6.8170   -3.1580    0.0000 O   0  0  0  0  0  0  0  0  0  0  0  0
    6.6640   -5.5360    0.0000 C   0  0  0  0  0  0  0  0  0  0  0  0
    7.2790   -1.2920    0.0000 O   0  0  0  0  0  0  0  0  0  0  0  0
    7.7370   -2.3920    0.0000 N   0  0  0  0  0  0  0  0  0  0  0  0
    7.0030   -4.2750    0.0000 C   0  0  0  0  0  0  0  0  0  0  0  0
    5.7440   -4.6120    0.0000 C   0  0  0  0  0  0  0  0  0  0  0  0
    5.9390   -5.3360    0.0000 C   0  0  0  0  0  0  0  0  0  0  0  0
    7.1980   -5.0010    0.0000 C   0  0  0  0  0  0  0  0  0  0  0  0
    6.4790   -6.9040    0.0000 F   0  0  0  0  0  0  0  0  0  0  0  0
    7.0500   -6.9790    0.0000 F   0  0  0  0  0  0  0  0  0  0  0  0
    7.5040   -6.6290    0.0000 F   0  0  0  0  0  0  0  0  0  0  0  0
    7.7330   -3.1420    0.0000 O   0  0  0  0  0  0  0  0  0  0  0  0
    4.4580   -2.6290    0.0000 C   0  0  0  0  0  0  0  0  0  0  0  0
    4.4520   -1.4150    0.0000 C   0  0  0  0  0  0  0  0  0  0  0  0
    4.0120   -2.0270    0.0000 C   0  0  0  0  0  0  0  0  0  0  0  0
    5.1660   -0.6410    0.0000 H   0  0  0  0  0  0  0  0  0  0  0  0
    5.1770   -3.4000    0.0000 H   0  0  0  0  0  0  0  0  0  0  0  0
  2 10  2  0  0  0  0
  2 11  2  0  0  0  0
  9 24  1  0  0  0  0
  2  8  1  0  0  0  0
 24 25  1  0  0  0  0
 25 23  1  0  0  0  0
 23  5  1  0  0  0  0
  8 16  2  0  0  0  0
  9  5  1  0  0  0  0
 16 17  1  0  0  0  0
 17 12  2  0  0  0  0
 12 18  1  0  0  0  0
 18 15  2  0  0  0  0
 15  8  1  0  0  0  0
 12  7  1  0  0  0  0
  7 19  1  0  0  0  0
  5  1  1  0  0  0  0
  7 20  1  0  0  0  0
  1  3  1  0  0  0  0
  7 21  1  0  0  0  0
  3  6  1  0  0  0  0
  4 13  2  0  0  0  0
  6  9  1  0  0  0  0
  4 14  1  0  0  0  0
  3  4  1  6  0  0  0
 14 22  1  0  0  0  0
  1  2  1  0  0  0  0
  9 26  1  1  0  0  0
  5 27  1  1  0  0  0
M  END
>  <ID_NEW>
CPDMM2276

>  <pIC50>
5.376750709602098

$$$$

  SciTegic12180812542D

 31 34  0  0  0  0            999 V2000
    3.4527   -4.3833    0.0000 C   0  0
    3.4516   -5.1357    0.0000 C   0  0
    4.1039   -5.5111    0.0000 C   0  0
    4.1021   -4.0081    0.0000 C   0  0
    4.7508   -4.3797    0.0000 C   0  0
    4.7496   -5.1378    0.0000 C   0  0
    5.4040   -5.5155    0.0000 C   0  0
    6.0600   -5.1398    0.0000 N   0  0
    6.0612   -4.3818    0.0000 C   0  0
    5.4064   -3.9994    0.0000 C   0  0
    5.4016   -6.2655    0.0000 C   0  0
    4.7485   -6.6385    0.0000 O   0  0
    6.0483   -6.6425    0.0000 O   0  0
    6.7066   -5.5169    0.0000 S   0  0
    6.7043   -6.2668    0.0000 O   0  0
    7.3598   -5.1439    0.0000 C   0  0
    6.1758   -6.0444    0.0000 O   0  0
    8.0033   -5.5240    0.0000 C   0  0
    8.6560   -5.1517    0.0000 C   0  0
    8.6587   -4.4008    0.0000 C   0  0
    8.0029   -4.0239    0.0000 C   0  0
    7.3574   -4.3986    0.0000 C   0  0
    9.3055   -4.0262    0.0000 C   0  0
    9.9529   -4.4040    0.0000 C   0  0
   10.6050   -4.0307    0.0000 C   0  0
   10.6067   -3.2798    0.0000 C   0  0
    9.9503   -2.9039    0.0000 C   0  0
    9.3053   -3.2796    0.0000 C   0  0
   11.2545   -2.9050    0.0000 Cl  0  0
    4.1046   -6.2637    0.0000 F   0  0
    4.1007   -3.2604    0.0000 C   0  0
  5  4  2  0
  8 14  1  0
  4  1  1  0
 14 15  2  0
  5 10  1  0
 14 16  1  0
  6  7  1  0
 14 17  2  0
  7  8  1  0
 16 18  2  0
  8  9  1  0
 18 19  1  0
  9 10  1  0
 19 20  2  0
  5  6  1  0
 20 21  1  0
 21 22  2  0
 22 16  1  0
 23 24  2  0
  2  3  1  0
 24 25  1  0
  7 11  1  0
 25 26  2  0
  3  6  2  0
 26 27  1  0
 11 12  2  0
 27 28  2  0
 28 23  1  0
 20 23  1  0
  1  2  2  0
 26 29  1  0
  3 30  1  0
 11 13  1  0
  4 31  1  0
M  END
>  <ID_NEW>
CPDMM2277

>  <pIC50>
5.346787486224656

$$$$

  SciTegic12180812512D

 31 34  0  0  0  0            999 V2000
   -2.4346    1.5262    0.0000 S   0  0
   -1.7201    1.9387    0.0000 C   0  0
   -1.0071    1.5215    0.0000 C   0  0
   -0.2931    1.9334    0.0000 C   0  0
   -0.2927    2.7592    0.0000 C   0  0
   -1.0122    3.1716    0.0000 C   0  0
   -1.7232    2.7574    0.0000 C   0  0
    0.4212    3.1727    0.0000 O   0  0
    1.1363    2.7611    0.0000 C   0  0
    1.1345    1.9376    0.0000 C   0  0
    1.8487    1.5261    0.0000 C   0  0
    2.5636    1.9396    0.0000 C   0  0
    2.5599    2.7689    0.0000 C   0  0
    1.8451    3.1766    0.0000 C   0  0
    3.2792    1.5290    0.0000 F   0  0
   -3.0221    0.9429    0.0000 O   0  0
   -2.0263    0.8137    0.0000 O   0  0
   -5.8306    3.3167    0.0000 C   0  0
   -5.8318    2.4893    0.0000 C   0  0
   -5.1169    2.0765    0.0000 C   0  0
   -5.1187    3.7295    0.0000 C   0  0
   -4.4034    3.3203    0.0000 C   0  0
   -3.7606    3.8311    0.0000 C   0  0
   -2.9593    3.6513    0.0000 C   0  0
   -2.5993    2.9158    0.0000 C   0  0
   -4.4000    2.4919    0.0000 C   0  0
   -2.9527    2.1682    0.0000 N   0  0
   -3.7530    1.9818    0.0000 C   0  0
   -3.9325    1.1766    0.0000 C   0  0
   -4.7187    0.9259    0.0000 O   0  0
   -3.3240    0.6149    0.0000 O   0  0
  1  2  1  0
  2  3  2  0
  3  4  1  0
  4  5  2  0
  5  6  1  0
  6  7  2  0
  7  2  1  0
  5  8  1  0
  8  9  1  0
  9 10  2  0
 10 11  1  0
 11 12  2  0
 12 13  1  0
 13 14  2  0
 14  9  1  0
 12 15  1  0
  1 16  2  0
  1 17  2  0
 18 19  2  0
 19 20  1  0
 20 26  2  0
 22 21  2  0
 21 18  1  0
 22 23  1  0
 23 24  1  0
 24 25  1  0
 22 26  1  0
 25 27  1  0
 26 28  1  0
 27 28  1  0
 28 29  1  0
 29 30  1  0
 29 31  2  0
 27  1  1  0
M  END
>  <ID_NEW>
CPDMM2278

>  <pIC50>
5.324302385963084

$$$$

  SciTegic12180812542D

 32 35  0  0  0  0            999 V2000
    3.4444   -3.6500    0.0000 C   0  0
    3.4433   -4.4023    0.0000 C   0  0
    4.0998   -4.7819    0.0000 C   0  0
    4.0980   -3.2705    0.0000 C   0  0
    4.7509   -3.6463    0.0000 C   0  0
    4.7497   -4.4040    0.0000 C   0  0
    5.4002   -4.7795    0.0000 C   0  0
    6.0563   -4.4018    0.0000 N   0  0
    6.0575   -3.6483    0.0000 C   0  0
    5.4025   -3.2641    0.0000 C   0  0
    6.7071   -4.7830    0.0000 S   0  0
    7.3583   -5.1542    0.0000 C   0  0
    6.3315   -5.4346    0.0000 O   0  0
    7.0921   -4.1344    0.0000 O   0  0
    5.3979   -5.5336    0.0000 C   0  0
    4.7448   -5.9066    0.0000 O   0  0
    6.0487   -5.9106    0.0000 O   0  0
    7.3564   -5.9033    0.0000 C   0  0
    8.0026   -6.2786    0.0000 C   0  0
    8.6499   -5.9017    0.0000 C   0  0
    8.6464   -5.1536    0.0000 C   0  0
    7.9996   -4.7820    0.0000 C   0  0
    9.3027   -6.2791    0.0000 C   0  0
    9.3033   -7.0344    0.0000 C   0  0
    9.9596   -7.4077    0.0000 C   0  0
   10.6116   -7.0310    0.0000 C   0  0
   10.6070   -6.2725    0.0000 C   0  0
    9.9543   -5.9030    0.0000 C   0  0
   11.2650   -7.4033    0.0000 Cl  0  0
    4.1007   -5.5336    0.0000 F   0  0
    4.0965   -2.5172    0.0000 C   0  0
    4.7482   -2.1393    0.0000 C   0  0
  1  2  2  0
 11 14  2  0
  5  4  2  0
  7 15  1  0
  4  1  1  0
 15 16  1  0
  5 10  1  0
 15 17  2  0
  6  7  1  0
 12 18  2  0
  7  8  1  0
 18 19  1  0
  8  9  1  0
 19 20  2  0
  9 10  1  0
 20 21  1  0
 21 22  2  0
 22 12  1  0
  5  6  1  0
 23 24  2  0
 24 25  1  0
 25 26  2  0
  8 11  1  0
 26 27  1  0
  2  3  1  0
 27 28  2  0
 28 23  1  0
 20 23  1  0
 11 12  1  0
 26 29  1  0
  3 30  1  0
  3  6  2  0
  4 31  1  0
 11 13  2  0
 31 32  1  0
M  END
>  <ID_NEW>
CPDMM2279

>  <pIC50>
5.301029995663981

$$$$

  SciTegic12180813002D

 32 35  0  0  0  0            999 V2000
   -1.5523    1.4243    0.0000 C   0  0
   -1.5534    0.5970    0.0000 C   0  0
   -0.8386    0.1841    0.0000 C   0  0
   -0.1222    0.5975    0.0000 C   0  0
   -0.1250    1.4280    0.0000 C   0  0
   -0.8404    1.8371    0.0000 C   0  0
   -2.2682    0.1850    0.0000 S   0  0
   -2.8592   -0.3965    0.0000 O   0  0
   -1.6883   -0.3965    0.0000 O   0  0
   -5.8333    1.4208    0.0000 C   0  0
   -5.8333    0.5958    0.0000 C   0  0
   -5.1213    0.1875    0.0000 C   0  0
   -5.1213    1.8375    0.0000 C   0  0
   -4.4093    1.4208    0.0000 C   0  0
   -4.4082    0.5958    0.0000 C   0  0
   -3.6972    0.1865    0.0000 C   0  0
   -2.9826    0.5976    0.0000 N   0  0
   -2.9837    1.4226    0.0000 C   0  0
   -3.6993    1.8365    0.0000 C   0  0
   -3.6973   -0.6385    0.0000 C   0  0
   -4.4110   -1.0523    0.0000 O   0  0
   -2.9820   -1.0525    0.0000 O   0  0
    0.5879    1.8432    0.0000 C   0  0
    1.3010    1.4314    0.0000 C   0  0
    2.0134    1.8459    0.0000 C   0  0
    2.0108    2.6718    0.0000 C   0  0
    1.2897    3.0814    0.0000 C   0  0
    0.5803    2.6645    0.0000 C   0  0
    2.7232    3.0879    0.0000 S   0  0
    3.4333    3.5083    0.0000 C   0  0
    3.1414    2.3767    0.0000 O   0  0
    2.3047    3.7989    0.0000 O   0  0
  1  2  2  0
  2  3  1  0
  3  4  2  0
  4  5  1  0
  5  6  2  0
  6  1  1  0
  2  7  1  0
  7  8  2  0
  7  9  2  0
 10 11  1  0
 10 13  1  0
 11 12  1  0
 12 15  1  0
 14 13  1  0
 14 15  1  0
 14 19  1  0
 15 16  1  0
 16 17  1  0
 17 18  1  0
 18 19  1  0
 16 20  1  0
 20 21  1  0
 20 22  2  0
 17  7  1  0
  5 23  1  0
 23 24  2  0
 24 25  1  0
 25 26  2  0
 26 27  1  0
 27 28  2  0
 28 23  1  0
 26 29  1  0
 29 30  1  0
 29 31  2  0
 29 32  2  0
M  END
>  <ID_NEW>
CPDMM2280

>  <pIC50>
5.2845463030386295

$$$$

  SciTegic12180812512D

 31 34  0  0  0  0            999 V2000
   -0.1045    2.4062    0.0000 C   0  0
    0.4383    1.7834    0.0000 C   0  0
    1.2467    1.9441    0.0000 C   0  0
    1.5123    2.7261    0.0000 C   0  0
    0.9634    3.3477    0.0000 C   0  0
    0.1570    3.1838    0.0000 C   0  0
    2.3212    2.8884    0.0000 C   0  0
    2.8624    2.2656    0.0000 C   0  0
    3.6706    2.4274    0.0000 C   0  0
    3.9352    3.2098    0.0000 C   0  0
    3.3854    3.8306    0.0000 C   0  0
    2.5792    3.6656    0.0000 C   0  0
    4.7438    3.3731    0.0000 Cl  0  0
   -5.8306    3.2250    0.0000 C   0  0
   -5.8318    2.3977    0.0000 C   0  0
   -5.1169    1.9848    0.0000 C   0  0
   -5.1187    3.6378    0.0000 C   0  0
   -4.4034    3.2287    0.0000 C   0  0
   -4.3999    2.3956    0.0000 C   0  0
   -3.6808    1.9843    0.0000 C   0  0
   -2.9604    2.4015    0.0000 N   0  0
   -2.9638    3.2346    0.0000 C   0  0
   -3.6876    3.6505    0.0000 C   0  0
   -3.6785    1.1593    0.0000 C   0  0
   -4.3904    0.7412    0.0000 O   0  0
   -2.9615    0.7450    0.0000 O   0  0
   -2.2448    1.9909    0.0000 S   0  0
   -1.5314    2.4054    0.0000 C   0  0
   -0.8158    1.9948    0.0000 C   0  0
   -2.9625    1.5833    0.0000 O   0  0
   -1.8375    1.2792    0.0000 O   0  0
  1  2  2  0
  2  3  1  0
  3  4  2  0
  4  5  1  0
  5  6  2  0
  6  1  1  0
  4  7  1  0
  7  8  2  0
  8  9  1  0
  9 10  2  0
 10 11  1  0
 11 12  2  0
 12  7  1  0
 10 13  1  0
 14 15  2  0
 15 16  1  0
 16 19  2  0
 18 17  2  0
 17 14  1  0
 18 19  1  0
 18 23  1  0
 19 20  1  0
 20 21  1  0
 21 22  1  0
 22 23  1  0
 20 24  1  0
 24 25  1  0
 24 26  2  0
 21 27  1  0
 27 28  1  0
 28 29  1  0
 29  1  1  0
 27 30  2  0
 27 31  2  0
M  END
>  <ID_NEW>
CPDMM2281

>  <pIC50>
5.275724130399211

$$$$

  -MTS-   10172316422D 0   0.00000     0.00000     0

 33 36  0  0  1  0  0  0  0  0999 V2000
   -2.2500    1.9210    0.0000 S   0  0  0  0  0  0  0  0  0  0  0  0
   -1.4360    2.0530    0.0000 C   0  0  0  0  0  0  0  0  0  0  0  0
   -0.9150    1.4120    0.0000 C   0  0  0  0  0  0  0  0  0  0  0  0
   -0.1020    1.5440    0.0000 C   0  0  0  0  0  0  0  0  0  0  0  0
    0.1910    2.3160    0.0000 C   0  0  0  0  0  0  0  0  0  0  0  0
   -0.3350    2.9560    0.0000 C   0  0  0  0  0  0  0  0  0  0  0  0
   -1.1470    2.8210    0.0000 C   0  0  0  0  0  0  0  0  0  0  0  0
    1.0060    2.4490    0.0000 O   0  0  0  0  0  0  0  0  0  0  0  0
    1.8170    2.5820    0.0000 C   0  0  0  0  0  0  0  0  0  0  0  0
    2.3370    1.9430    0.0000 C   0  0  0  0  0  0  0  0  0  0  0  0
    3.1480    2.0760    0.0000 C   0  0  0  0  0  0  0  0  0  0  0  0
    3.4400    2.8460    0.0000 C   0  0  0  0  0  0  0  0  0  0  0  0
    2.9140    3.4840    0.0000 C   0  0  0  0  0  0  0  0  0  0  0  0
    2.1040    3.3480    0.0000 C   0  0  0  0  0  0  0  0  0  0  0  0
    4.2530    2.9810    0.0000 S   0  0  0  0  0  0  0  0  0  0  0  0
    5.0660    3.1150    0.0000 C   0  0  0  0  0  0  0  0  0  0  0  0
    4.1150    3.7960    0.0000 O   0  0  0  0  0  0  0  0  0  0  0  0
    4.3800    2.1670    0.0000 O   0  0  0  0  0  0  0  0  0  0  0  0
   -2.8920    1.4030    0.0000 O   0  0  0  0  0  0  0  0  0  0  0  0
   -1.9120    1.1690    0.0000 O   0  0  0  0  0  0  0  0  0  0  0  0
   -5.8310    3.1540    0.0000 C   0  0  0  0  0  0  0  0  0  0  0  0
   -5.8320    2.3270    0.0000 C   0  0  0  0  0  0  0  0  0  0  0  0
   -5.1170    1.9140    0.0000 C   0  0  0  0  0  0  0  0  0  0  0  0
   -5.1190    3.5670    0.0000 C   0  0  0  0  0  0  0  0  0  0  0  0
   -4.4030    3.1580    0.0000 C   0  0  0  0  0  0  0  0  0  0  0  0
   -4.4000    2.3250    0.0000 C   0  0  0  0  0  0  0  0  0  0  0  0
   -3.6810    1.9130    0.0000 C   0  0  1  0  0  0  0  0  0  0  0  0
   -2.9600    2.3310    0.0000 N   0  0  0  0  0  0  0  0  0  0  0  0
   -2.9640    3.1640    0.0000 C   0  0  0  0  0  0  0  0  0  0  0  0
   -3.6880    3.5800    0.0000 C   0  0  0  0  0  0  0  0  0  0  0  0
   -3.6780    1.0880    0.0000 C   0  0  0  0  0  0  0  0  0  0  0  0
   -4.3900    0.6700    0.0000 O   0  0  0  0  0  0  0  0  0  0  0  0
   -2.9610    0.6740    0.0000 O   0  0  0  0  0  0  0  0  0  0  0  0
  1  2  1  0  0  0  0
  2  3  2  0  0  0  0
  3  4  1  0  0  0  0
  4  5  2  0  0  0  0
  5  6  1  0  0  0  0
  6  7  2  0  0  0  0
  7  2  1  0  0  0  0
  5  8  1  0  0  0  0
  8  9  1  0  0  0  0
  9 10  2  0  0  0  0
 10 11  1  0  0  0  0
 11 12  2  0  0  0  0
 12 13  1  0  0  0  0
 13 14  2  0  0  0  0
 14  9  1  0  0  0  0
 12 15  1  0  0  0  0
 15 16  1  0  0  0  0
 15 17  2  0  0  0  0
 15 18  2  0  0  0  0
  1 19  2  0  0  0  0
  1 20  2  0  0  0  0
 21 22  2  0  0  0  0
 22 23  1  0  0  0  0
 23 26  2  0  0  0  0
 25 24  2  0  0  0  0
 24 21  1  0  0  0  0
 25 26  1  0  0  0  0
 25 30  1  0  0  0  0
 26 27  1  0  0  0  0
 27 28  1  0  0  0  0
 28 29  1  0  0  0  0
 29 30  1  0  0  0  0
 27 31  1  1  0  0  0
 31 32  1  0  0  0  0
 31 33  2  0  0  0  0
 28  1  1  0  0  0  0
M  END
>  <ID_NEW>
CPDMM2282

>  <pIC50>
5.259142183896267

$$$$

  -MTS-   10172316422D 0   0.00000     0.00000     0

 36 40  0  0  1  0  0  0  0  0999 V2000
   -5.7050    2.2960    0.0000 C   0  0  0  0  0  0  0  0  0  0  0  0
   -5.7070    1.7730    0.0000 C   0  0  0  0  0  0  0  0  0  0  0  0
   -5.2250    1.5140    0.0000 C   0  0  0  0  0  0  0  0  0  0  0  0
   -5.2270    2.5590    0.0000 C   0  0  0  0  0  0  0  0  0  0  0  0
   -4.7490    2.2990    0.0000 C   0  0  0  0  0  0  0  0  0  0  0  0
   -4.7500    1.7750    0.0000 C   0  0  0  0  0  0  0  0  0  0  0  0
   -4.2720    1.5130    0.0000 C   0  0  0  0  0  0  0  0  0  0  0  0
   -3.7890    1.7720    0.0000 N   0  0  0  0  0  0  0  0  0  0  0  0
   -3.7890    2.2970    0.0000 C   0  0  2  0  0  0  0  0  0  0  0  0
   -4.2710    2.5590    0.0000 C   0  0  0  0  0  0  0  0  0  0  0  0
   -3.3050    2.5620    0.0000 C   0  0  0  0  0  0  0  0  0  0  0  0
   -2.8260    2.2890    0.0000 N   0  0  0  0  0  0  0  0  0  0  0  0
   -3.3030    3.0780    0.0000 O   0  0  0  0  0  0  0  0  0  0  0  0
   -3.3070    1.5120    0.0000 S   0  0  0  0  0  0  0  0  0  0  0  0
   -2.8220    1.2450    0.0000 C   0  0  0  0  0  0  0  0  0  0  0  0
   -3.0250    1.9640    0.0000 O   0  0  0  0  0  0  0  0  0  0  0  0
   -3.5840    1.0510    0.0000 O   0  0  0  0  0  0  0  0  0  0  0  0
   -2.8220    0.7160    0.0000 C   0  0  0  0  0  0  0  0  0  0  0  0
   -2.3380    0.4460    0.0000 C   0  0  0  0  0  0  0  0  0  0  0  0
   -1.8480    0.7120    0.0000 C   0  0  0  0  0  0  0  0  0  0  0  0
   -1.8480    1.2440    0.0000 C   0  0  0  0  0  0  0  0  0  0  0  0
   -2.3330    1.5070    0.0000 C   0  0  0  0  0  0  0  0  0  0  0  0
   -1.3680    0.4520    0.0000 N   0  0  0  0  0  0  0  0  0  0  0  0
   -1.3790   -0.0670    0.0000 C   0  0  0  0  0  0  0  0  0  0  0  0
   -0.9030   -0.3310    0.0000 C   0  0  0  0  0  0  0  0  0  0  0  0
   -0.4180   -0.0740    0.0000 N   0  0  0  0  0  0  0  0  0  0  0  0
   -0.4150    0.4440    0.0000 C   0  0  0  0  0  0  0  0  0  0  0  0
   -0.8990    0.7120    0.0000 C   0  0  0  0  0  0  0  0  0  0  0  0
    0.0520   -0.3590    0.0000 C   0  0  0  0  0  0  0  0  0  0  0  0
    0.5340   -0.0920    0.0000 C   0  0  0  0  0  0  0  0  0  0  0  0
    1.0000   -0.3790    0.0000 C   0  0  0  0  0  0  0  0  0  0  0  0
    1.4810   -0.1170    0.0000 C   0  0  0  0  0  0  0  0  0  0  0  0
    1.4920    0.4330    0.0000 C   0  0  0  0  0  0  0  0  0  0  0  0
    1.0220    0.7180    0.0000 C   0  0  0  0  0  0  0  0  0  0  0  0
    0.5430    0.4540    0.0000 C   0  0  0  0  0  0  0  0  0  0  0  0
   -2.3520    2.5690    0.0000 O   0  0  0  0  0  0  0  0  0  0  0  0
  5  6  1  0  0  0  0
 20 23  1  0  0  0  0
 23 24  1  0  0  0  0
  9 11  1  6  0  0  0
 11 12  1  0  0  0  0
  2  3  1  0  0  0  0
 11 13  2  0  0  0  0
 23 28  1  0  0  0  0
 24 25  1  0  0  0  0
 25 26  1  0  0  0  0
 26 27  1  0  0  0  0
 27 28  1  0  0  0  0
  3  6  2  0  0  0  0
  8 14  1  0  0  0  0
  1  2  2  0  0  0  0
 14 15  1  0  0  0  0
  5  4  2  0  0  0  0
 14 16  2  0  0  0  0
  4  1  1  0  0  0  0
 14 17  2  0  0  0  0
  5 10  1  0  0  0  0
 15 18  2  0  0  0  0
  6  7  1  0  0  0  0
 18 19  1  0  0  0  0
 26 29  1  0  0  0  0
  7  8  1  0  0  0  0
 29 30  1  0  0  0  0
 19 20  2  0  0  0  0
 30 31  2  0  0  0  0
  8  9  1  0  0  0  0
 31 32  1  0  0  0  0
 20 21  1  0  0  0  0
 32 33  2  0  0  0  0
  9 10  1  0  0  0  0
 33 34  1  0  0  0  0
 21 22  2  0  0  0  0
 34 35  2  0  0  0  0
 35 30  1  0  0  0  0
 22 15  1  0  0  0  0
 12 36  1  0  0  0  0
M  END
>  <ID_NEW>
CPDMM2283

>  <pIC50>
5.221848749616356

$$$$

  SciTegic12180812342D

 29 32  0  0  0  0            999 V2000
   -5.7598    2.3125    0.0000 C   0  0
   -5.7609    1.5769    0.0000 C   0  0
   -5.1253    1.2098    0.0000 C   0  0
   -5.1271    2.6836    0.0000 C   0  0
   -4.4908    2.3204    0.0000 C   0  0
   -4.4874    1.5748    0.0000 C   0  0
   -3.8432    1.2093    0.0000 C   0  0
   -3.2062    1.5807    0.0000 N   0  0
   -3.2097    2.3221    0.0000 C   0  0
   -3.8543    2.6922    0.0000 C   0  0
   -3.8452    0.4718    0.0000 C   0  0
   -4.4779    0.0995    0.0000 O   0  0
   -3.2074    0.1033    0.0000 O   0  0
   -2.5709    1.2167    0.0000 S   0  0
   -1.9417    1.5875    0.0000 C   0  0
   -3.0959    0.6958    0.0000 O   0  0
   -2.0541    0.6958    0.0000 O   0  0
   -1.3000    1.2217    0.0000 C   0  0
   -0.6672    1.5918    0.0000 N   0  0
   -0.6714    2.3264    0.0000 C   0  0
   -1.3143    2.6932    0.0000 C   0  0
   -1.9441    2.3208    0.0000 C   0  0
   -0.0388    2.6980    0.0000 O   0  0
    0.5917    2.3333    0.0000 C   0  0
    0.5883    1.5999    0.0000 C   0  0
    1.2221    1.2353    0.0000 C   0  0
    1.8543    1.5989    0.0000 C   0  0
    1.8523    2.3355    0.0000 C   0  0
    1.2220    2.6964    0.0000 C   0  0
  8 14  1  0
  1  2  2  0
 14 15  1  0
  5  4  2  0
 14 16  2  0
  4  1  1  0
 14 17  2  0
  5 10  1  0
 15 18  2  0
  6  7  1  0
 18 19  1  0
  7  8  1  0
 19 20  2  0
  8  9  1  0
 20 21  1  0
  9 10  1  0
 21 22  2  0
 22 15  1  0
  5  6  1  0
 20 23  1  0
  7 11  1  0
 23 24  1  0
 24 25  2  0
  2  3  1  0
 25 26  1  0
 11 12  1  0
 26 27  2  0
 11 13  2  0
 27 28  1  0
  3  6  2  0
 28 29  2  0
 29 24  1  0
M  END
>  <ID_NEW>
CPDMM2284

>  <pIC50>
5.221848749616356

$$$$

  -MTS-   10172316422D 0   0.00000     0.00000     0

 35 38  0  0  1  0  0  0  0  0999 V2000
   -0.7600   -0.8370    0.0000 C   0  0  0  0  0  0  0  0  0  0  0  0
   -0.7610   -1.6610    0.0000 C   0  0  0  0  0  0  0  0  0  0  0  0
   -0.0420   -2.0730    0.0000 C   0  0  0  0  0  0  0  0  0  0  0  0
   -0.0440   -0.4250    0.0000 C   0  0  0  0  0  0  0  0  0  0  0  0
    0.6670   -0.8340    0.0000 C   0  0  0  0  0  0  0  0  0  0  0  0
    0.6670   -1.6590    0.0000 C   0  0  0  0  0  0  0  0  0  0  0  0
    1.3820   -2.0740    0.0000 C   0  0  0  0  0  0  0  0  0  0  0  0
    2.0980   -1.6610    0.0000 N   0  0  0  0  0  0  0  0  0  0  0  0
    2.0990   -0.8360    0.0000 C   0  0  2  0  0  0  0  0  0  0  0  0
    1.3830   -0.4240    0.0000 C   0  0  0  0  0  0  0  0  0  0  0  0
    2.8200   -0.4210    0.0000 C   0  0  0  0  0  0  0  0  0  0  0  0
    3.5320   -0.8400    0.0000 O   0  0  0  0  0  0  0  0  0  0  0  0
    2.8220    0.4030    0.0000 O   0  0  0  0  0  0  0  0  0  0  0  0
    2.8180   -2.0800    0.0000 S   0  0  0  0  0  0  0  0  0  0  0  0
    3.2390   -1.3610    0.0000 O   0  0  0  0  0  0  0  0  0  0  0  0
    2.3980   -2.8020    0.0000 O   0  0  0  0  0  0  0  0  0  0  0  0
    3.5400   -2.5010    0.0000 C   0  0  0  0  0  0  0  0  0  0  0  0
    4.2600   -2.0890    0.0000 C   0  0  0  0  0  0  0  0  0  0  0  0
    4.9740   -2.5060    0.0000 C   0  0  0  0  0  0  0  0  0  0  0  0
    4.9630   -3.3340    0.0000 C   0  0  0  0  0  0  0  0  0  0  0  0
    5.6760   -3.7470    0.0000 C   0  0  0  0  0  0  0  0  0  0  0  0
    6.4050   -3.3440    0.0000 C   0  0  0  0  0  0  0  0  0  0  0  0
    6.4110   -2.5190    0.0000 C   0  0  0  0  0  0  0  0  0  0  0  0
    5.6930   -2.0970    0.0000 C   0  0  0  0  0  0  0  0  0  0  0  0
    7.1190   -3.7560    0.0000 C   0  0  0  0  0  0  0  0  0  0  0  0
    7.1180   -4.5840    0.0000 C   0  0  0  0  0  0  0  0  0  0  0  0
    7.8320   -4.9960    0.0000 C   0  0  0  0  0  0  0  0  0  0  0  0
    8.5520   -4.5840    0.0000 C   0  0  0  0  0  0  0  0  0  0  0  0
    8.5530   -3.7540    0.0000 C   0  0  0  0  0  0  0  0  0  0  0  0
    7.8340   -3.3420    0.0000 C   0  0  0  0  0  0  0  0  0  0  0  0
    9.2670   -3.3420    0.0000 C   0  0  0  0  0  0  0  0  0  0  0  0
    9.9820   -3.7540    0.0000 N   0  0  0  0  0  0  0  0  0  0  0  0
    9.2670   -2.5170    0.0000 O   0  0  0  0  0  0  0  0  0  0  0  0
    9.9820   -4.5790    0.0000 C   0  0  0  0  0  0  0  0  0  0  0  0
   10.6960   -3.3410    0.0000 C   0  0  0  0  0  0  0  0  0  0  0  0
 14 17  1  0  0  0  0
  5 10  1  0  0  0  0
 17 18  1  0  0  0  0
  6  7  1  0  0  0  0
 18 19  1  0  0  0  0
  7  8  1  0  0  0  0
 19 20  2  0  0  0  0
  8  9  1  0  0  0  0
 20 21  1  0  0  0  0
  9 10  1  0  0  0  0
 21 22  2  0  0  0  0
  5  6  1  0  0  0  0
 22 23  1  0  0  0  0
  9 11  1  6  0  0  0
 23 24  2  0  0  0  0
 24 19  1  0  0  0  0
 22 25  1  0  0  0  0
 11 12  1  0  0  0  0
 25 26  2  0  0  0  0
  2  3  1  0  0  0  0
 26 27  1  0  0  0  0
 11 13  2  0  0  0  0
 27 28  2  0  0  0  0
  3  6  2  0  0  0  0
 28 29  1  0  0  0  0
  8 14  1  0  0  0  0
 29 30  2  0  0  0  0
 30 25  1  0  0  0  0
  1  2  2  0  0  0  0
 29 31  1  0  0  0  0
 14 15  2  0  0  0  0
 31 32  1  0  0  0  0
  5  4  2  0  0  0  0
 31 33  2  0  0  0  0
 14 16  2  0  0  0  0
 32 34  1  0  0  0  0
  4  1  1  0  0  0  0
 32 35  1  0  0  0  0
M  END
>  <ID_NEW>
CPDMM2285

>  <pIC50>
5.154901959985742

$$$$

  SciTegic12180812512D

 27 30  0  0  0  0            999 V2000
   -0.2375    0.0792    0.0000 C   0  0
    0.0958    0.6833    0.0000 C   0  0
    0.6833    1.0958    0.0000 C   0  0
    0.4708    0.4375    0.0000 C   0  0
    0.5333    1.8458    0.0000 C   0  0
    1.4125    0.6708    0.0000 C   0  0
    1.1417    0.1000    0.0000 N   0  0
    1.4097   -0.6803    0.0000 S   0  0
    2.2006    0.9147    0.0000 C   0  0
    2.8059    0.3540    0.0000 O   0  0
    2.3835    1.7191    0.0000 O   0  0
    0.8679   -1.3025    0.0000 O   0  0
    2.2194   -0.8383    0.0000 C   0  0
    0.5866   -0.7372    0.0000 O   0  0
    2.4823   -1.6206    0.0000 C   0  0
    3.2912   -1.7789    0.0000 N   0  0
    3.8338   -1.1563    0.0000 C   0  0
    3.5619   -0.3728    0.0000 C   0  0
    2.7537   -0.2183    0.0000 C   0  0
    4.6437   -1.3132    0.0000 O   0  0
    4.9128   -2.0931    0.0000 C   0  0
    4.3698   -2.7138    0.0000 C   0  0
    4.6383   -3.4931    0.0000 C   0  0
    5.4490   -3.6507    0.0000 C   0  0
    5.9907   -3.0228    0.0000 C   0  0
    5.7193   -2.2459    0.0000 C   0  0
    5.7190   -4.4302    0.0000 Cl  0  0
  8 13  1  0
  3  6  1  0
  8 14  2  0
  6  7  1  0
 13 15  2  0
  7  4  1  0
 15 16  1  0
 16 17  2  0
  7  8  1  0
 17 18  1  0
  1  2  1  0
 18 19  2  0
 19 13  1  0
  6  9  1  0
 17 20  1  0
  2  3  1  0
 20 21  1  0
  9 10  1  0
 21 22  2  0
  1  4  1  0
 22 23  1  0
  9 11  2  0
 23 24  2  0
  4  5  1  0
 24 25  1  0
  8 12  2  0
 25 26  2  0
 26 21  1  0
  5  3  1  0
 24 27  1  0
M  END
>  <ID_NEW>
CPDMM2286

>  <pIC50>
5.154901959985742

$$$$

  SciTegic12180812502D

 30 33  0  0  0  0            999 V2000
    0.3578    2.3134    0.0000 C   0  0
   -0.0631    3.0257    0.0000 C   0  0
   -0.8885    3.0163    0.0000 C   0  0
   -1.2940    2.2953    0.0000 C   0  0
   -0.8680    1.5824    0.0000 C   0  0
   -0.0440    1.5953    0.0000 C   0  0
    1.1828    2.3231    0.0000 C   0  0
    1.6004    1.6076    0.0000 C   0  0
    2.4217    1.6153    0.0000 C   0  0
    2.8296    2.3328    0.0000 C   0  0
    2.4099    3.0442    0.0000 C   0  0
    1.5823    3.0381    0.0000 C   0  0
    3.6546    2.3394    0.0000 Cl  0  0
   -2.1189    2.2845    0.0000 S   0  0
   -1.9159    3.0841    0.0000 O   0  0
   -2.9330    2.1503    0.0000 N   0  0
   -5.8306    3.3000    0.0000 C   0  0
   -5.8318    2.4727    0.0000 C   0  0
   -5.1169    2.0598    0.0000 C   0  0
   -5.1187    3.7128    0.0000 C   0  0
   -4.3985    2.4756    0.0000 C   0  0
   -4.4034    3.3037    0.0000 C   0  0
   -3.7563    3.8296    0.0000 C   0  0
   -3.7423    1.9611    0.0000 C   0  0
   -2.9441    3.6553    0.0000 C   0  0
   -2.5793    2.9089    0.0000 C   0  0
   -3.9188    1.1552    0.0000 C   0  0
   -4.7049    0.9051    0.0000 O   0  0
   -3.3091    0.5994    0.0000 O   0  0
   -2.3678    1.4979    0.0000 O   0  0
  1  2  2  0
  2  3  1  0
  3  4  2  0
  4  5  1  0
  5  6  2  0
  6  1  1  0
  1  7  1  0
  7  8  1  0
  7 12  2  0
  8  9  2  0
  9 10  1  0
 10 11  2  0
 11 12  1  0
 10 13  1  0
  4 14  1  0
 14 15  2  0
 14 16  1  0
 17 18  2  0
 18 19  1  0
 19 21  2  0
 22 20  2  0
 20 17  1  0
 21 22  1  0
 22 23  1  0
 21 24  1  0
 23 25  1  0
 24 16  1  0
 25 26  1  0
 16 26  1  0
 24 27  1  0
 27 28  2  0
 27 29  1  0
 14 30  2  0
M  END
>  <ID_NEW>
CPDMM2287

>  <pIC50>
5.094588626924821

$$$$

  -MTS-   10172316422D 0   0.00000     0.00000     0

 35 38  0  0  1  0  0  0  0  0999 V2000
   -2.9330    2.1500    0.0000 N   0  0  0  0  0  0  0  0  0  0  0  0
   -5.8310    3.3000    0.0000 C   0  0  0  0  0  0  0  0  0  0  0  0
   -5.8320    2.4730    0.0000 C   0  0  0  0  0  0  0  0  0  0  0  0
   -5.1170    2.0600    0.0000 C   0  0  0  0  0  0  0  0  0  0  0  0
   -5.1190    3.7130    0.0000 C   0  0  0  0  0  0  0  0  0  0  0  0
   -4.3980    2.4760    0.0000 C   0  0  0  0  0  0  0  0  0  0  0  0
   -4.4030    3.3040    0.0000 C   0  0  0  0  0  0  0  0  0  0  0  0
   -3.7560    3.8300    0.0000 C   0  0  0  0  0  0  0  0  0  0  0  0
   -3.7420    1.9610    0.0000 C   0  0  1  0  0  0  0  0  0  0  0  0
   -2.9440    3.6550    0.0000 C   0  0  0  0  0  0  0  0  0  0  0  0
   -2.5790    2.9090    0.0000 C   0  0  0  0  0  0  0  0  0  0  0  0
   -3.9200    1.1560    0.0000 C   0  0  0  0  0  0  0  0  0  0  0  0
   -4.7070    0.9070    0.0000 N   0  0  0  0  0  0  0  0  0  0  0  0
   -3.3120    0.5980    0.0000 O   0  0  0  0  0  0  0  0  0  0  0  0
   -4.8850    0.1010    0.0000 O   0  0  0  0  0  0  0  0  0  0  0  0
   -2.4130    1.5100    0.0000 S   0  0  0  0  0  0  0  0  0  0  0  0
   -1.6210    1.7290    0.0000 C   0  0  0  0  0  0  0  0  0  0  0  0
   -3.2170    1.3000    0.0000 O   0  0  0  0  0  0  0  0  0  0  0  0
   -2.4210    0.6870    0.0000 O   0  0  0  0  0  0  0  0  0  0  0  0
   -1.0360    1.1500    0.0000 C   0  0  0  0  0  0  0  0  0  0  0  0
   -0.2450    1.3690    0.0000 C   0  0  0  0  0  0  0  0  0  0  0  0
   -0.0380    2.1650    0.0000 C   0  0  0  0  0  0  0  0  0  0  0  0
   -0.6290    2.7430    0.0000 C   0  0  0  0  0  0  0  0  0  0  0  0
   -1.4180    2.5210    0.0000 C   0  0  0  0  0  0  0  0  0  0  0  0
    0.7570    2.3860    0.0000 C   0  0  0  0  0  0  0  0  0  0  0  0
    1.3450    1.8080    0.0000 C   0  0  0  0  0  0  0  0  0  0  0  0
    2.1390    2.0280    0.0000 C   0  0  0  0  0  0  0  0  0  0  0  0
    2.3450    2.8280    0.0000 C   0  0  0  0  0  0  0  0  0  0  0  0
    1.7520    3.4070    0.0000 C   0  0  0  0  0  0  0  0  0  0  0  0
    0.9600    3.1830    0.0000 C   0  0  0  0  0  0  0  0  0  0  0  0
    3.1400    3.0500    0.0000 O   0  0  0  0  0  0  0  0  0  0  0  0
    3.7300    2.4730    0.0000 C   0  0  0  0  0  0  0  0  0  0  0  0
    4.5240    2.6950    0.0000 F   0  0  0  0  0  0  0  0  0  0  0  0
    3.5250    1.6740    0.0000 F   0  0  0  0  0  0  0  0  0  0  0  0
    3.7210    3.2980    0.0000 F   0  0  0  0  0  0  0  0  0  0  0  0
  2  3  2  0  0  0  0
  3  4  1  0  0  0  0
  4  6  2  0  0  0  0
  7  5  2  0  0  0  0
  5  2  1  0  0  0  0
  6  7  1  0  0  0  0
  7  8  1  0  0  0  0
  6  9  1  0  0  0  0
  8 10  1  0  0  0  0
  9  1  1  0  0  0  0
 10 11  1  0  0  0  0
  1 11  1  0  0  0  0
  9 12  1  6  0  0  0
 12 13  1  0  0  0  0
 12 14  2  0  0  0  0
 13 15  1  0  0  0  0
  1 16  1  0  0  0  0
 16 17  1  0  0  0  0
 16 18  2  0  0  0  0
 16 19  2  0  0  0  0
 17 20  2  0  0  0  0
 20 21  1  0  0  0  0
 21 22  2  0  0  0  0
 22 23  1  0  0  0  0
 23 24  2  0  0  0  0
 24 17  1  0  0  0  0
 22 25  1  0  0  0  0
 25 26  2  0  0  0  0
 26 27  1  0  0  0  0
 27 28  2  0  0  0  0
 28 29  1  0  0  0  0
 29 30  2  0  0  0  0
 30 25  1  0  0  0  0
 28 31  1  0  0  0  0
 31 32  1  0  0  0  0
 32 33  1  0  0  0  0
 32 34  1  0  0  0  0
 32 35  1  0  0  0  0
M  END
>  <ID_NEW>
CPDMM2288

>  <pIC50>
5.050531729806379

$$$$

  SciTegic12180812342D

 28 31  0  0  0  0            999 V2000
   -5.7598    2.6542    0.0000 C   0  0
   -5.7609    1.9144    0.0000 C   0  0
   -5.1253    1.5473    0.0000 C   0  0
   -5.1271    3.0211    0.0000 C   0  0
   -4.4908    2.6579    0.0000 C   0  0
   -4.4874    1.9123    0.0000 C   0  0
   -3.8432    1.5468    0.0000 C   0  0
   -3.2062    1.9182    0.0000 N   0  0
   -3.2097    2.6596    0.0000 C   0  0
   -3.8543    3.0297    0.0000 C   0  0
   -3.8452    0.8093    0.0000 C   0  0
   -4.4779    0.4370    0.0000 O   0  0
   -3.2074    0.4408    0.0000 O   0  0
   -2.5709    1.5542    0.0000 S   0  0
   -1.9417    1.9250    0.0000 C   0  0
   -3.0959    1.0333    0.0000 O   0  0
   -2.0541    1.0333    0.0000 O   0  0
   -1.3000    1.5592    0.0000 C   0  0
   -0.6672    1.9293    0.0000 N   0  0
   -0.6714    2.6639    0.0000 C   0  0
   -1.3143    3.0307    0.0000 C   0  0
   -1.9441    2.6583    0.0000 C   0  0
   -0.0372    3.0346    0.0000 N   0  0
    0.6038    2.6715    0.0000 C   0  0
    1.2362    3.0391    0.0000 C   0  0
    1.2360    3.7740    0.0000 O   0  0
    0.5979    4.1398    0.0000 C   0  0
   -0.0399    3.7707    0.0000 C   0  0
 14 17  2  0
  5 10  1  0
 15 18  2  0
  6  7  1  0
 18 19  1  0
  7  8  1  0
 19 20  2  0
  8  9  1  0
 20 21  1  0
  9 10  1  0
 21 22  2  0
 22 15  1  0
  5  6  1  0
  7 11  1  0
  2  3  1  0
 11 12  1  0
 11 13  2  0
  3  6  2  0
 20 23  1  0
 23 24  1  0
  8 14  1  0
  1  2  2  0
 14 15  1  0
  5  4  2  0
 23 28  1  0
 24 25  1  0
 25 26  1  0
 26 27  1  0
 27 28  1  0
 14 16  2  0
  4  1  1  0
M  END
>  <ID_NEW>
CPDMM2289

>  <pIC50>
5.045757490560675

$$$$

  SciTegic12180813012D

 36 39  0  0  0  0            999 V2000
   -5.9958    1.7958    0.0000 S   0  0
   -6.7292    1.7958    0.0000 N   0  0
   -7.1042    1.1625    0.0000 C   0  0
   -7.8417    1.1583    0.0000 C   0  0
   -6.7292    0.5125    0.0000 C   0  0
   -0.4083    2.4083    0.0000 C   0  0
   -8.2167    1.7958    0.0000 C   0  0
   -7.0958    2.4333    0.0000 C   0  0
   -5.2583    1.8000    0.0000 C   0  0
   -6.0000    1.0625    0.0000 O   0  0
   -5.9833    2.5458    0.0000 O   0  0
   -8.2042    0.5125    0.0000 C   0  0
   -7.8417    2.4333    0.0000 C   0  0
   -0.7750    1.7708    0.0000 O   0  0
   -5.9958    0.5250    0.0000 O   0  0
   -3.7625    1.7833    0.0000 C   0  0
   -8.9542    1.7958    0.0000 C   0  0
   -3.0208    1.7833    0.0000 C   0  0
   -7.0917   -0.1125    0.0000 N   0  0
   -4.8708    2.4375    0.0000 C   0  0
   -4.8917    1.1458    0.0000 C   0  0
   -4.1250    2.4250    0.0000 C   0  0
   -4.1417    1.1583    0.0000 C   0  0
    0.3542    2.5208    0.0000 F   0  0
   -0.6833    3.1208    0.0000 F   0  0
   -0.0708    2.9833    0.0000 F   0  0
   -2.6458    2.4208    0.0000 C   0  0
   -2.6500    1.1375    0.0000 C   0  0
   -1.5333    1.7625    0.0000 C   0  0
   -9.3167    1.1583    0.0000 C   0  0
   -8.9417    0.5125    0.0000 C   0  0
   -1.9042    2.4208    0.0000 C   0  0
   -1.9083    1.1333    0.0000 C   0  0
   -6.7333   -0.7542    0.0000 O   0  0
  -10.0542    1.1500    0.0000 O   0  0
  -10.4125    0.5083    0.0000 C   0  0
  2  1  1  0
  3  2  1  0
  4  3  1  0
  5  3  1  0
  6 14  1  0
  7 13  1  0
  8  2  1  0
  9  1  1  0
 10  1  2  0
 11  1  2  0
 12  4  2  0
 13  8  1  0
 14 29  1  0
 15  5  2  0
 16 22  1  0
 17  7  2  0
 18 16  1  0
 19  5  1  0
 20  9  1  0
 21  9  2  0
 22 20  2  0
 23 21  1  0
 24  6  1  0
 25  6  1  0
 26  6  1  0
 27 18  1  0
 28 18  2  0
 29 32  1  0
 30 17  1  0
 31 12  1  0
 32 27  2  0
 33 28  1  0
 34 19  1  0
 35 30  1  0
 36 35  1  0
 23 16  2  0
  7  4  1  0
 30 31  2  0
 29 33  2  0
M  END
>  <ID_NEW>
CPDMM2290

>  <pIC50>
5.022367286056328

$$$$

  SciTegic12180812562D

 32 35  0  0  0  0            999 V2000
    3.1319   -4.2083    0.0000 C   0  0
    3.1307   -4.9606    0.0000 C   0  0
    3.7830   -5.3360    0.0000 C   0  0
    3.7812   -3.8330    0.0000 C   0  0
    4.4300   -4.2046    0.0000 C   0  0
    4.4334   -4.9581    0.0000 C   0  0
    5.0819   -5.3296    0.0000 C   0  0
    5.7358   -4.9564    0.0000 N   0  0
    5.7324   -4.2030    0.0000 C   0  0
    5.0751   -3.8269    0.0000 C   0  0
    5.0842   -6.0796    0.0000 C   0  0
    4.4375   -6.4566    0.0000 O   0  0
    5.7373   -6.4569    0.0000 O   0  0
    6.3847   -5.3295    0.0000 S   0  0
    6.3870   -6.0795    0.0000 O   0  0
    7.0356   -4.9526    0.0000 C   0  0
    5.8572   -5.8602    0.0000 O   0  0
    7.6808   -5.3293    0.0000 C   0  0
    8.3269   -4.9530    0.0000 C   0  0
    8.3251   -4.2021    0.0000 C   0  0
    7.6712   -3.8293    0.0000 C   0  0
    7.0279   -4.2079    0.0000 C   0  0
    8.9754   -3.8242    0.0000 O   0  0
    9.6249   -4.1963    0.0000 C   0  0
    9.6255   -4.9469    0.0000 C   0  0
   10.2783   -5.3189    0.0000 C   0  0
   10.9255   -4.9410    0.0000 C   0  0
   10.9195   -4.1867    0.0000 C   0  0
   10.2702   -3.8185    0.0000 C   0  0
   11.5755   -5.3121    0.0000 Cl  0  0
    3.7846   -6.0886    0.0000 F   0  0
    3.7798   -3.0854    0.0000 C   0  0
  8 14  1  0
  4  1  1  0
 14 15  2  0
  5 10  1  0
 14 16  1  0
  6  7  1  0
 14 17  2  0
  7  8  1  0
 16 18  2  0
  8  9  1  0
 18 19  1  0
  9 10  1  0
 19 20  2  0
  5  6  1  0
 20 21  1  0
 21 22  2  0
 22 16  1  0
 20 23  1  0
 23 24  1  0
  2  3  1  0
 24 25  2  0
  7 11  1  0
 25 26  1  0
  3  6  2  0
 26 27  2  0
 11 12  2  0
 27 28  1  0
  1  2  2  0
 28 29  2  0
 29 24  1  0
 11 13  1  0
 27 30  1  0
  3 31  1  0
  5  4  2  0
  4 32  1  0
M  END
>  <ID_NEW>
CPDMM2291

>  <pIC50>
5.000182528893302

$$$$

  SciTegic12180812242D

 27 29  0  0  0  0            999 V2000
    2.8041   -5.3917    0.0000 C   0  0
    2.8041   -6.0126    0.0000 C   0  0
    3.3412   -6.3125    0.0000 C   0  0
    3.8698   -6.0126    0.0000 C   0  0
    3.8698   -5.3917    0.0000 C   0  0
    3.3412   -5.0792    0.0000 O   0  0
    2.7999   -6.6209    0.0000 C   0  0
    3.8666   -6.6250    0.0000 C   0  0
    4.4034   -6.3233    0.0000 S   0  0
    5.0166   -6.3125    0.0000 C   0  0
    5.3236   -6.8460    0.0000 C   0  0
    5.9361   -6.8439    0.0000 C   0  0
    6.2414   -6.3097    0.0000 C   0  0
    5.9365   -5.7804    0.0000 C   0  0
    5.3171   -5.7819    0.0000 C   0  0
    6.8622   -6.3103    0.0000 O   0  0
    2.6375   -7.2167    0.0000 O   0  0
    2.3110   -6.2439    0.0000 O   0  0
    4.3958   -5.7000    0.0000 O   0  0
    4.3958   -6.9374    0.0000 O   0  0
    7.4708   -6.3084    0.0000 C   0  0
    7.7812   -6.8458    0.0000 C   0  0
    8.3932   -6.8442    0.0000 C   0  0
    8.6945   -6.3108    0.0000 C   0  0
    8.3861   -5.7816    0.0000 C   0  0
    7.7715   -5.7825    0.0000 C   0  0
    9.3084   -6.3084    0.0000 Cl  0  0
 13 14  1  0
  3  7  1  0
 14 15  2  0
 15 10  1  0
  1  2  1  0
 13 16  1  0
  3  8  1  0
  7 17  2  0
  1  6  1  0
  7 18  1  0
  8  9  1  0
  2  3  1  0
  9 19  2  0
  9 10  1  0
  9 20  2  0
  3  4  1  0
 16 21  1  0
 10 11  2  0
 21 22  2  0
  4  5  1  0
 22 23  1  0
 11 12  1  0
 23 24  2  0
  5  6  1  0
 24 25  1  0
 12 13  2  0
 25 26  2  0
 26 21  1  0
 24 27  1  0
M  END
>  <ID_NEW>
CPDMM2292

>  <pIC50>
5.0

$$$$

  -MTS-   10172316422D 0   0.00000     0.00000     0

 41 46  0  0  1  0  0  0  0  0999 V2000
   -1.6710    0.4860    0.0000 C   0  0  0  0  0  0  0  0  0  0  0  0
   -2.0430    1.1220    0.0000 C   0  0  0  0  0  0  0  0  0  0  0  0
   -3.4020    1.7950    0.0000 C   0  0  1  0  0  0  0  0  0  0  0  0
   -3.7810    2.4410    0.0000 C   0  0  0  0  0  0  0  0  0  0  0  0
   -3.9030    1.2300    0.0000 N   0  0  0  0  0  0  0  0  0  0  0  0
   -4.5920    1.5330    0.0000 C   0  0  1  0  0  0  0  0  0  0  0  0
   -4.5140    2.2850    0.0000 C   0  0  2  0  0  0  0  0  0  0  0  0
   -5.2060    2.5920    0.0000 C   0  0  0  0  0  0  0  0  0  0  0  0
   -5.7070    2.0290    0.0000 C   0  0  0  0  0  0  0  0  0  0  0  0
   -5.3320    1.3740    0.0000 C   0  0  0  0  0  0  0  0  0  0  0  0
   -3.9080    0.4870    0.0000 S   0  0  0  0  0  0  0  0  0  0  0  0
   -4.5540    0.1170    0.0000 O   0  0  0  0  0  0  0  0  0  0  0  0
   -3.7120   -0.2330    0.0000 O   0  0  0  0  0  0  0  0  0  0  0  0
   -3.1620    0.4870    0.0000 C   0  0  0  0  0  0  0  0  0  0  0  0
   -2.7910   -0.1600    0.0000 C   0  0  0  0  0  0  0  0  0  0  0  0
   -2.0460   -0.1610    0.0000 C   0  0  0  0  0  0  0  0  0  0  0  0
   -2.7930    1.1310    0.0000 C   0  0  0  0  0  0  0  0  0  0  0  0
   -0.9370    0.4870    0.0000 C   0  0  0  0  0  0  0  0  0  0  0  0
   -0.5710   -0.1490    0.0000 C   0  0  0  0  0  0  0  0  0  0  0  0
    0.1620   -0.1480    0.0000 C   0  0  0  0  0  0  0  0  0  0  0  0
    0.5280    0.4890    0.0000 C   0  0  0  0  0  0  0  0  0  0  0  0
    0.1560    1.1220    0.0000 C   0  0  0  0  0  0  0  0  0  0  0  0
   -0.5760    1.1170    0.0000 C   0  0  0  0  0  0  0  0  0  0  0  0
    1.2580    0.4920    0.0000 N   0  0  0  0  0  0  0  0  0  0  0  0
   -2.6540    1.7960    0.0000 C   0  0  0  0  0  0  0  0  0  0  0  0
   -1.9330    1.6040    0.0000 O   0  0  0  0  0  0  0  0  0  0  0  0
   -2.6580    2.5420    0.0000 O   0  0  0  0  0  0  0  0  0  0  0  0
    1.6230   -0.1460    0.0000 C   0  0  0  0  0  0  0  0  0  0  0  0
    2.3490   -0.1450    0.0000 C   0  0  0  0  0  0  0  0  0  0  0  0
    2.7160    0.4860    0.0000 N   0  0  0  0  0  0  0  0  0  0  0  0
    2.3490    1.1190    0.0000 C   0  0  0  0  0  0  0  0  0  0  0  0
    1.6170    1.1190    0.0000 C   0  0  0  0  0  0  0  0  0  0  0  0
    3.4420    0.4870    0.0000 C   0  0  0  0  0  0  0  0  0  0  0  0
    3.8040   -0.1430    0.0000 C   0  0  0  0  0  0  0  0  0  0  0  0
    4.5290   -0.1420    0.0000 C   0  0  0  0  0  0  0  0  0  0  0  0
    4.8920    0.4880    0.0000 C   0  0  0  0  0  0  0  0  0  0  0  0
    4.5240    1.1180    0.0000 C   0  0  0  0  0  0  0  0  0  0  0  0
    3.8000    1.1140    0.0000 C   0  0  0  0  0  0  0  0  0  0  0  0
    5.6170    0.4920    0.0000 F   0  0  0  0  0  0  0  0  0  0  0  0
   -4.4100    3.2800    0.0000 H   0  0  0  0  0  0  0  0  0  0  0  0
   -4.6940    0.5380    0.0000 H   0  0  0  0  0  0  0  0  0  0  0  0
  8  9  1  0  0  0  0
 18 19  2  0  0  0  0
  9 10  1  0  0  0  0
 19 20  1  0  0  0  0
 10  6  1  0  0  0  0
 20 21  2  0  0  0  0
  5  3  1  0  0  0  0
 21 22  1  0  0  0  0
  5 11  1  0  0  0  0
 22 23  2  0  0  0  0
 23 18  1  0  0  0  0
  6  7  1  0  0  0  0
 21 24  1  0  0  0  0
 11 12  2  0  0  0  0
  3 25  1  6  0  0  0
 25 26  1  0  0  0  0
 11 13  2  0  0  0  0
 25 27  2  0  0  0  0
  2  1  2  0  0  0  0
 11 14  1  0  0  0  0
 24 28  1  0  0  0  0
  3  4  1  0  0  0  0
 14 15  1  0  0  0  0
  4  7  1  0  0  0  0
 24 32  1  0  0  0  0
 28 29  1  0  0  0  0
 29 30  1  0  0  0  0
 30 31  1  0  0  0  0
 31 32  1  0  0  0  0
 15 16  2  0  0  0  0
 30 33  1  0  0  0  0
 16  1  1  0  0  0  0
 33 34  2  0  0  0  0
  6  5  1  0  0  0  0
 34 35  1  0  0  0  0
  2 17  1  0  0  0  0
 35 36  2  0  0  0  0
 17 14  2  0  0  0  0
 36 37  1  0  0  0  0
  7  8  1  0  0  0  0
 37 38  2  0  0  0  0
 38 33  1  0  0  0  0
  1 18  1  0  0  0  0
 36 39  1  0  0  0  0
  7 40  1  1  0  0  0
  6 41  1  1  0  0  0
M  END
>  <ID_NEW>
CPDMM2293

>  <pIC50>
5.0

$$$$

  -MTS-   10172316422D 0   0.00000     0.00000     0

 26 29  0  0  1  0  0  0  0  0999 V2000
    6.0210   -3.6170    0.0000 S   0  0  0  0  0  0  0  0  0  0  0  0
    5.8310   -2.8900    0.0000 N   0  0  0  0  0  0  0  0  0  0  0  0
    6.2740   -2.2790    0.0000 C   0  0  2  0  0  0  0  0  0  0  0  0
    6.3960   -4.2630    0.0000 C   0  0  0  0  0  0  0  0  0  0  0  0
    5.1080   -2.6620    0.0000 C   0  0  1  0  0  0  0  0  0  0  0  0
    5.8250   -1.6690    0.0000 C   0  0  0  0  0  0  0  0  0  0  0  0
    5.1040   -1.9040    0.0000 C   0  0  1  0  0  0  0  0  0  0  0  0
    5.3710   -3.9870    0.0000 O   0  0  0  0  0  0  0  0  0  0  0  0
    6.7460   -3.4210    0.0000 O   0  0  0  0  0  0  0  0  0  0  0  0
    6.0170   -4.9110    0.0000 C   0  0  0  0  0  0  0  0  0  0  0  0
    6.3880   -5.5570    0.0000 C   0  0  0  0  0  0  0  0  0  0  0  0
    7.1400   -4.2660    0.0000 C   0  0  0  0  0  0  0  0  0  0  0  0
    7.1340   -5.5630    0.0000 C   0  0  0  0  0  0  0  0  0  0  0  0
    7.5120   -4.9150    0.0000 C   0  0  0  0  0  0  0  0  0  0  0  0
    4.3960   -2.8920    0.0000 C   0  0  0  0  0  0  0  0  0  0  0  0
    4.3890   -1.6780    0.0000 C   0  0  0  0  0  0  0  0  0  0  0  0
    3.9450   -2.2890    0.0000 C   0  0  0  0  0  0  0  0  0  0  0  0
    6.0110   -6.2020    0.0000 C   0  0  0  0  0  0  0  0  0  0  0  0
    7.5030   -6.2100    0.0000 C   0  0  0  0  0  0  0  0  0  0  0  0
    6.3800   -6.8490    0.0000 C   0  0  0  0  0  0  0  0  0  0  0  0
    7.1300   -6.8510    0.0000 C   0  0  0  0  0  0  0  0  0  0  0  0
    7.0210   -2.2790    0.0000 C   0  0  0  0  0  0  0  0  0  0  0  0
    7.3970   -1.6300    0.0000 O   0  0  0  0  0  0  0  0  0  0  0  0
    7.3980   -2.9280    0.0000 O   0  0  0  0  0  0  0  0  0  0  0  0
    5.1000   -0.9040    0.0000 H   0  0  0  0  0  0  0  0  0  0  0  0
    5.1110   -3.6620    0.0000 H   0  0  0  0  0  0  0  0  0  0  0  0
 13 14  1  0  0  0  0
 14 12  2  0  0  0  0
 12  4  1  0  0  0  0
 13 11  1  0  0  0  0
 11 18  2  0  0  0  0
 18 20  1  0  0  0  0
 20 21  2  0  0  0  0
 21 19  1  0  0  0  0
 19 13  2  0  0  0  0
  7 16  1  0  0  0  0
 16 17  1  0  0  0  0
 17 15  1  0  0  0  0
 15  5  1  0  0  0  0
  7  5  1  0  0  0  0
  5  2  1  0  0  0  0
  2  3  1  0  0  0  0
  3  6  1  0  0  0  0
  6  7  1  0  0  0  0
  3 22  1  6  0  0  0
  2  1  1  0  0  0  0
  1  9  2  0  0  0  0
  1  8  2  0  0  0  0
  1  4  1  0  0  0  0
  4 10  2  0  0  0  0
 10 11  1  0  0  0  0
 22 24  1  0  0  0  0
 22 23  2  0  0  0  0
  7 25  1  1  0  0  0
  5 26  1  1  0  0  0
M  END
>  <ID_NEW>
CPDMM2294

>  <pIC50>
5.0

$$$$

  -MTS-   10172316422D 0   0.00000     0.00000     0

 23 25  0  0  1  0  0  0  0  0999 V2000
    5.8310   -2.9990    0.0000 N   0  0  0  0  0  0  0  0  0  0  0  0
    6.0210   -3.7210    0.0000 S   0  0  0  0  0  0  0  0  0  0  0  0
    6.2740   -2.3840    0.0000 C   0  0  2  0  0  0  0  0  0  0  0  0
    5.1080   -2.7670    0.0000 C   0  0  1  0  0  0  0  0  0  0  0  0
    5.8250   -1.7730    0.0000 C   0  0  0  0  0  0  0  0  0  0  0  0
    6.2170   -4.4460    0.0000 C   0  0  0  0  0  0  0  0  0  0  0  0
    5.1040   -2.0080    0.0000 C   0  0  1  0  0  0  0  0  0  0  0  0
    6.7460   -3.5250    0.0000 O   0  0  0  0  0  0  0  0  0  0  0  0
    5.2960   -3.9170    0.0000 O   0  0  0  0  0  0  0  0  0  0  0  0
    6.9370   -4.6360    0.0000 C   0  0  0  0  0  0  0  0  0  0  0  0
    5.6850   -4.9720    0.0000 C   0  0  0  0  0  0  0  0  0  0  0  0
    6.6020   -5.8900    0.0000 C   0  0  0  0  0  0  0  0  0  0  0  0
    7.1320   -5.3580    0.0000 C   0  0  0  0  0  0  0  0  0  0  0  0
    5.8760   -5.6970    0.0000 C   0  0  0  0  0  0  0  0  0  0  0  0
    6.7920   -6.6120    0.0000 Br  0  0  0  0  0  0  0  0  0  0  0  0
    4.3960   -3.0000    0.0000 C   0  0  0  0  0  0  0  0  0  0  0  0
    4.3890   -1.7820    0.0000 C   0  0  0  0  0  0  0  0  0  0  0  0
    3.9450   -2.3930    0.0000 C   0  0  0  0  0  0  0  0  0  0  0  0
    7.0210   -2.3830    0.0000 C   0  0  0  0  0  0  0  0  0  0  0  0
    7.3970   -1.7340    0.0000 O   0  0  0  0  0  0  0  0  0  0  0  0
    7.3980   -3.0320    0.0000 O   0  0  0  0  0  0  0  0  0  0  0  0
    5.1000   -1.0080    0.0000 H   0  0  0  0  0  0  0  0  0  0  0  0
    5.1110   -3.7670    0.0000 H   0  0  0  0  0  0  0  0  0  0  0  0
  2  8  2  0  0  0  0
  2  6  1  0  0  0  0
  6 11  2  0  0  0  0
 11 14  1  0  0  0  0
 14 12  2  0  0  0  0
 12 13  1  0  0  0  0
 13 10  2  0  0  0  0
 10  6  1  0  0  0  0
 12 15  1  0  0  0  0
  7 17  1  0  0  0  0
 17 18  1  0  0  0  0
 18 16  1  0  0  0  0
 16  4  1  0  0  0  0
  7  4  1  0  0  0  0
  4  1  1  0  0  0  0
  1  3  1  0  0  0  0
  3  5  1  0  0  0  0
  5  7  1  0  0  0  0
  3 19  1  6  0  0  0
  1  2  1  0  0  0  0
  2  9  2  0  0  0  0
 19 21  1  0  0  0  0
 19 20  2  0  0  0  0
  7 22  1  1  0  0  0
  4 23  1  1  0  0  0
M  END
>  <ID_NEW>
CPDMM2295

>  <pIC50>
5.0

$$$$

  -MTS-   10172316422D 0   0.00000     0.00000     0

 27 29  0  0  1  0  0  0  0  0999 V2000
    5.6560   -2.6940    0.0000 N   0  0  0  0  0  0  0  0  0  0  0  0
    5.8500   -3.4210    0.0000 S   0  0  0  0  0  0  0  0  0  0  0  0
    6.0990   -2.0840    0.0000 C   0  0  1  0  0  0  0  0  0  0  0  0
    6.8500   -2.0830    0.0000 C   0  0  0  0  0  0  0  0  0  0  0  0
    4.9370   -2.4620    0.0000 C   0  0  1  0  0  0  0  0  0  0  0  0
    5.6500   -1.4690    0.0000 C   0  0  0  0  0  0  0  0  0  0  0  0
    6.0410   -4.1460    0.0000 C   0  0  0  0  0  0  0  0  0  0  0  0
    4.9330   -1.7080    0.0000 C   0  0  1  0  0  0  0  0  0  0  0  0
    5.1170   -3.6170    0.0000 O   0  0  0  0  0  0  0  0  0  0  0  0
    6.5750   -3.2210    0.0000 O   0  0  0  0  0  0  0  0  0  0  0  0
    6.6120   -6.3170    0.0000 C   0  0  0  0  0  0  0  0  0  0  0  0
    6.4240   -5.5940    0.0000 C   0  0  0  0  0  0  0  0  0  0  0  0
    7.2210   -1.4290    0.0000 O   0  0  0  0  0  0  0  0  0  0  0  0
    7.2210   -2.7290    0.0000 N   0  0  0  0  0  0  0  0  0  0  0  0
    5.5080   -4.6740    0.0000 C   0  0  0  0  0  0  0  0  0  0  0  0
    6.7630   -4.3400    0.0000 C   0  0  0  0  0  0  0  0  0  0  0  0
    6.9560   -5.0630    0.0000 C   0  0  0  0  0  0  0  0  0  0  0  0
    5.6970   -5.4000    0.0000 C   0  0  0  0  0  0  0  0  0  0  0  0
    7.9710   -2.7290    0.0000 O   0  0  0  0  0  0  0  0  0  0  0  0
    4.2210   -2.6960    0.0000 C   0  0  0  0  0  0  0  0  0  0  0  0
    4.2140   -1.4780    0.0000 C   0  0  0  0  0  0  0  0  0  0  0  0
    3.7740   -2.0890    0.0000 C   0  0  0  0  0  0  0  0  0  0  0  0
    6.0790   -6.8460    0.0000 C   0  0  0  0  0  0  0  0  0  0  0  0
    6.8080   -7.0420    0.0000 C   0  0  0  0  0  0  0  0  0  0  0  0
    7.3620   -6.3170    0.0000 C   0  0  0  0  0  0  0  0  0  0  0  0
    4.9270   -0.7080    0.0000 H   0  0  0  0  0  0  0  0  0  0  0  0
    4.9390   -3.4620    0.0000 H   0  0  0  0  0  0  0  0  0  0  0  0
  8 21  1  0  0  0  0
 21 22  1  0  0  0  0
 22 20  1  0  0  0  0
 20  5  1  0  0  0  0
  8  5  1  0  0  0  0
  5  1  1  0  0  0  0
  1  3  1  0  0  0  0
  3  6  1  0  0  0  0
  6  8  1  0  0  0  0
  3  4  1  6  0  0  0
  1  2  1  0  0  0  0
  2  9  2  0  0  0  0
  2 10  2  0  0  0  0
  2  7  1  0  0  0  0
  4 13  2  0  0  0  0
  4 14  1  0  0  0  0
 14 19  1  0  0  0  0
  7 15  2  0  0  0  0
 15 18  1  0  0  0  0
 18 12  2  0  0  0  0
 17 16  2  0  0  0  0
 16  7  1  0  0  0  0
 17 12  1  0  0  0  0
 12 11  1  0  0  0  0
 11 23  1  0  0  0  0
 11 24  1  0  0  0  0
 11 25  1  0  0  0  0
  8 26  1  1  0  0  0
  5 27  1  1  0  0  0
M  END
>  <ID_NEW>
CPDMM2296

>  <pIC50>
5.0

$$$$

  SciTegic12180812142D

 23 25  0  0  0  0            999 V2000
   -5.1875    0.2875    0.0000 S   0  0
   -4.4557    0.8159    0.0000 C   0  0
   -4.7375    1.6791    0.0000 C   0  0
   -5.6375    1.6791    0.0000 C   0  0
   -5.9193    0.8159    0.0000 C   0  0
   -3.6006    0.5347    0.0000 C   0  0
   -3.4106   -0.3478    0.0000 O   0  0
   -2.9253    1.1356    0.0000 O   0  0
   -4.2111    2.4051    0.0000 S   0  0
   -3.3082    2.4084    0.0000 N   0  0
   -2.8532    1.6323    0.0000 C   0  0
   -1.9539    1.6336    0.0000 C   0  0
   -1.5036    2.4092    0.0000 N   0  0
   -1.9545    3.1935    0.0000 C   0  0
   -2.8600    3.1939    0.0000 C   0  0
   -0.5994    2.4094    0.0000 C   0  0
   -0.1533    1.6326    0.0000 C   0  0
    0.7460    1.6324    0.0000 C   0  0
    1.2009    2.4100    0.0000 N   0  0
    0.7463    3.1975    0.0000 C   0  0
   -0.1557    3.1942    0.0000 C   0  0
   -4.6200    3.2031    0.0000 O   0  0
   -3.7667    3.1875    0.0000 O   0  0
  4  5  2  0
 10 15  1  0
 11 12  1  0
 12 13  1  0
 13 14  1  0
 14 15  1  0
 13 16  1  0
  6  7  1  0
 16 17  2  0
  6  8  2  0
 17 18  1  0
 18 19  2  0
  3  9  1  0
 19 20  1  0
  1  2  1  0
 20 21  2  0
 21 16  1  0
  9 10  1  0
 10 11  1  0
  3  4  1  0
  5  1  1  0
  9 22  2  0
  9 23  2  0
  2  3  2  0
  2  6  1  0
M  END
>  <ID_NEW>
CPDMM2297

>  <pIC50>
5.0

$$$$

  SciTegic12180812142D

 27 29  0  0  0  0            999 V2000
   -5.0834    0.3917    0.0000 S   0  0
   -4.4265    0.8659    0.0000 C   0  0
   -4.6833    1.6416    0.0000 C   0  0
   -5.4875    1.6416    0.0000 C   0  0
   -5.7401    0.8659    0.0000 C   0  0
   -3.6631    0.6180    0.0000 C   0  0
   -3.4939   -0.1728    0.0000 O   0  0
   -3.0587    1.1523    0.0000 O   0  0
   -4.2069    2.2926    0.0000 S   0  0
   -3.3999    2.2959    0.0000 N   0  0
   -2.9948    1.5989    0.0000 C   0  0
   -2.1914    1.6002    0.0000 C   0  0
   -1.7828    2.2967    0.0000 N   0  0
   -2.1878    2.9977    0.0000 C   0  0
   -3.0016    2.9981    0.0000 C   0  0
   -0.9744    2.2969    0.0000 C   0  0
   -0.5783    1.5992    0.0000 C   0  0
    0.2252    1.5990    0.0000 C   0  0
    0.6342    2.2975    0.0000 C   0  0
    0.2255    3.0017    0.0000 C   0  0
   -0.5807    2.9984    0.0000 C   0  0
    1.4384    2.2987    0.0000 C   0  0
    1.8352    1.6181    0.0000 F   0  0
    1.8332    2.9762    0.0000 F   0  0
    1.2385    1.5390    0.0000 F   0  0
   -4.5817    3.0276    0.0000 O   0  0
   -3.9958    3.0958    0.0000 O   0  0
 12 13  1  0
 13 14  1  0
 14 15  1  0
 13 16  1  0
  6  7  1  0
 16 17  2  0
  6  8  2  0
 17 18  1  0
 18 19  2  0
  3  9  1  0
 19 20  1  0
  1  2  1  0
 20 21  2  0
 21 16  1  0
  9 10  1  0
 10 11  1  0
 19 22  1  0
  3  4  1  0
  5  1  1  0
 22 23  1  0
 22 24  1  0
  2  3  2  0
 22 25  1  0
  2  6  1  0
  4  5  2  0
  9 26  2  0
  9 27  2  0
 10 15  1  0
 11 12  1  0
M  END
>  <ID_NEW>
CPDMM2298

>  <pIC50>
5.0

$$$$

  SciTegic12180812142D

 24 26  0  0  0  0            999 V2000
   -5.0334    0.3042    0.0000 S   0  0
   -4.3474    0.8034    0.0000 C   0  0
   -4.6125    1.6125    0.0000 C   0  0
   -5.4584    1.6125    0.0000 C   0  0
   -5.7235    0.8034    0.0000 C   0  0
   -3.5423    0.5389    0.0000 C   0  0
   -3.3648   -0.2894    0.0000 O   0  0
   -2.9087    1.1023    0.0000 O   0  0
   -4.1153    2.3009    0.0000 S   0  0
   -3.2666    2.3042    0.0000 N   0  0
   -2.8407    1.5698    0.0000 C   0  0
   -1.9956    1.5711    0.0000 C   0  0
   -1.5703    2.3050    0.0000 N   0  0
   -1.9962    3.0393    0.0000 C   0  0
   -2.8475    3.0397    0.0000 C   0  0
   -0.7203    2.3052    0.0000 C   0  0
   -0.3033    1.5701    0.0000 C   0  0
    0.5418    1.5699    0.0000 C   0  0
    0.9717    2.3058    0.0000 C   0  0
    0.5421    3.0433    0.0000 C   0  0
   -0.3057    3.0400    0.0000 N   0  0
   -4.4913    3.0352    0.0000 O   0  0
   -3.9042    3.1041    0.0000 O   0  0
    0.9519    3.7594    0.0000 C   0  0
  4  5  2  0
 10 15  1  0
 11 12  1  0
 12 13  1  0
 13 14  1  0
 14 15  1  0
 13 16  1  0
  6  7  1  0
 16 17  2  0
  6  8  2  0
 17 18  1  0
 18 19  2  0
  3  9  1  0
 19 20  1  0
  1  2  1  0
 20 21  2  0
 21 16  1  0
  9 10  1  0
 10 11  1  0
  3  4  1  0
  5  1  1  0
  9 22  2  0
  9 23  2  0
  2  3  2  0
  2  6  1  0
 20 24  1  0
M  END
>  <ID_NEW>
CPDMM2299

>  <pIC50>
5.0

$$$$

  SciTegic12180812152D

 33 36  0  0  0  0            999 V2000
   -5.0834    0.3542    0.0000 S   0  0
   -4.4265    0.8284    0.0000 C   0  0
   -4.6833    1.5958    0.0000 C   0  0
   -5.4875    1.5958    0.0000 C   0  0
   -5.7401    0.8284    0.0000 C   0  0
   -3.6631    0.5764    0.0000 C   0  0
   -3.4939   -0.2102    0.0000 O   0  0
   -3.0545    1.1148    0.0000 O   0  0
   -4.2069    2.2551    0.0000 S   0  0
   -3.3999    2.2584    0.0000 N   0  0
   -2.9907    1.5615    0.0000 C   0  0
   -2.1872    1.5586    0.0000 C   0  0
   -1.7828    2.2592    0.0000 N   0  0
   -2.1878    2.9560    0.0000 C   0  0
   -2.9975    2.9564    0.0000 C   0  0
   -0.9744    2.2594    0.0000 C   0  0
   -0.5783    1.5618    0.0000 C   0  0
    0.2293    1.5616    0.0000 C   0  0
    0.6384    2.2600    0.0000 C   0  0
    0.2296    2.9600    0.0000 C   0  0
   -0.5765    2.9567    0.0000 C   0  0
   -4.5663    2.9519    0.0000 O   0  0
   -4.0083    3.0208    0.0000 O   0  0
    1.4634    2.2594    0.0000 C   0  0
    1.8733    1.5410    0.0000 C   0  0
    2.6976    1.5401    0.0000 C   0  0
    3.1114    2.2548    0.0000 C   0  0
    2.6949    2.9719    0.0000 C   0  0
    1.8720    2.9693    0.0000 C   0  0
    3.1092    0.8251    0.0000 C   0  0
    2.6959    0.1111    0.0000 F   0  0
    3.9342    0.8242    0.0000 F   0  0
    2.3121    0.6125    0.0000 F   0  0
 17 18  1  0
 18 19  2  0
  3  9  1  0
 19 20  1  0
  1  2  1  0
 20 21  2  0
 21 16  1  0
  9 10  1  0
 10 11  1  0
  3  4  1  0
  5  1  1  0
  9 22  2  0
  9 23  2  0
  2  3  2  0
  2  6  1  0
 19 24  1  0
 24 25  2  0
  4  5  2  0
 25 26  1  0
 10 15  1  0
 26 27  2  0
 11 12  1  0
 27 28  1  0
 12 13  1  0
 28 29  2  0
 29 24  1  0
 13 14  1  0
 26 30  1  0
 14 15  1  0
 30 31  1  0
 13 16  1  0
 30 32  1  0
  6  7  1  0
 30 33  1  0
 16 17  2  0
  6  8  2  0
M  END
>  <ID_NEW>
CPDMM2300

>  <pIC50>
5.0

$$$$

  SciTegic12180812152D

 23 25  0  0  0  0            999 V2000
   -5.1250    0.4000    0.0000 S   0  0
   -4.5057    0.8534    0.0000 C   0  0
   -4.7458    1.5875    0.0000 C   0  0
   -5.5084    1.5875    0.0000 C   0  0
   -5.7485    0.8534    0.0000 C   0  0
   -3.7756    0.6139    0.0000 C   0  0
   -3.6148   -0.1352    0.0000 O   0  0
   -3.2003    1.1231    0.0000 O   0  0
   -4.2944    2.2134    0.0000 S   0  0
   -3.5291    2.2167    0.0000 N   0  0
   -3.1407    1.5490    0.0000 C   0  0
   -2.3747    1.5461    0.0000 C   0  0
   -1.9911    2.2175    0.0000 N   0  0
   -2.3753    2.8810    0.0000 C   0  0
   -3.1433    2.8814    0.0000 C   0  0
   -1.2203    2.2177    0.0000 C   0  0
   -0.8408    1.5493    0.0000 C   0  0
   -0.0748    1.5491    0.0000 C   0  0
    0.3134    2.2183    0.0000 C   0  0
   -0.0745    2.8850    0.0000 C   0  0
   -0.8432    2.8817    0.0000 N   0  0
   -4.6371    2.8769    0.0000 O   0  0
   -4.1042    2.9416    0.0000 O   0  0
  4  5  2  0
 10 15  1  0
 11 12  1  0
 12 13  1  0
 13 14  1  0
 14 15  1  0
 13 16  1  0
  6  7  1  0
 16 17  2  0
  6  8  2  0
 17 18  1  0
 18 19  2  0
  3  9  1  0
 19 20  1  0
  1  2  1  0
 20 21  2  0
 21 16  1  0
  9 10  1  0
 10 11  1  0
  3  4  1  0
  5  1  1  0
  9 22  2  0
  9 23  2  0
  2  3  2  0
  2  6  1  0
M  END
>  <ID_NEW>
CPDMM2301

>  <pIC50>
5.0

$$$$

  -MTS-   10172316422D 0   0.00000     0.00000     0

 29 32  0  0  1  0  0  0  0  0999 V2000
    6.7440   -5.2660    0.0000 N   0  0  0  0  0  0  0  0  0  0  0  0
    7.3930   -5.6430    0.0000 C   0  0  0  0  0  0  0  0  0  0  0  0
    8.0400   -5.2650    0.0000 C   0  0  0  0  0  0  0  0  0  0  0  0
    8.0390   -4.5200    0.0000 O   0  0  0  0  0  0  0  0  0  0  0  0
    7.3850   -4.1470    0.0000 C   0  0  0  0  0  0  0  0  0  0  0  0
    6.7450   -4.5200    0.0000 C   0  0  0  0  0  0  0  0  0  0  0  0
    0.8900   -5.6540    0.0000 C   0  0  0  0  0  0  0  0  0  0  0  0
    0.8890   -6.4110    0.0000 C   0  0  0  0  0  0  0  0  0  0  0  0
    1.5410   -6.7860    0.0000 C   0  0  0  0  0  0  0  0  0  0  0  0
    1.5400   -5.2790    0.0000 C   0  0  0  0  0  0  0  0  0  0  0  0
    2.1880   -5.6500    0.0000 C   0  0  0  0  0  0  0  0  0  0  0  0
    2.1920   -6.4130    0.0000 C   0  0  0  0  0  0  0  0  0  0  0  0
    2.8530   -6.7870    0.0000 C   0  0  2  0  0  0  0  0  0  0  0  0
    3.5020   -6.4070    0.0000 N   0  0  0  0  0  0  0  0  0  0  0  0
    3.4990   -5.6490    0.0000 C   0  0  0  0  0  0  0  0  0  0  0  0
    2.8410   -5.2700    0.0000 C   0  0  0  0  0  0  0  0  0  0  0  0
    2.8510   -7.5410    0.0000 C   0  0  0  0  0  0  0  0  0  0  0  0
    2.2010   -7.9210    0.0000 N   0  0  0  0  0  0  0  0  0  0  0  0
    3.5010   -7.9180    0.0000 O   0  0  0  0  0  0  0  0  0  0  0  0
    4.1540   -6.7790    0.0000 S   0  0  0  0  0  0  0  0  0  0  0  0
    4.7960   -6.4000    0.0000 C   0  0  0  0  0  0  0  0  0  0  0  0
    3.6170   -7.3130    0.0000 O   0  0  0  0  0  0  0  0  0  0  0  0
    4.6830   -7.3130    0.0000 O   0  0  0  0  0  0  0  0  0  0  0  0
    5.4540   -6.7740    0.0000 C   0  0  0  0  0  0  0  0  0  0  0  0
    6.0990   -6.3960    0.0000 N   0  0  0  0  0  0  0  0  0  0  0  0
    6.0950   -5.6440    0.0000 C   0  0  0  0  0  0  0  0  0  0  0  0
    5.4400   -5.2690    0.0000 C   0  0  0  0  0  0  0  0  0  0  0  0
    4.7930   -5.6500    0.0000 C   0  0  0  0  0  0  0  0  0  0  0  0
    2.2070   -8.6720    0.0000 O   0  0  0  0  0  0  0  0  0  0  0  0
  3  4  1  0  0  0  0
  4  5  1  0  0  0  0
  5  6  1  0  0  0  0
  6  1  1  0  0  0  0
  1  2  1  0  0  0  0
  2  3  1  0  0  0  0
 17 19  2  0  0  0  0
  9 12  2  0  0  0  0
 18 29  1  0  0  0  0
 14 20  1  0  0  0  0
  7  8  2  0  0  0  0
 20 21  1  0  0  0  0
 11 10  2  0  0  0  0
 20 22  2  0  0  0  0
 10  7  1  0  0  0  0
 20 23  2  0  0  0  0
 11 16  1  0  0  0  0
 21 24  2  0  0  0  0
 12 13  1  0  0  0  0
 24 25  1  0  0  0  0
 13 14  1  0  0  0  0
 25 26  2  0  0  0  0
 14 15  1  0  0  0  0
 26 27  1  0  0  0  0
 15 16  1  0  0  0  0
 27 28  2  0  0  0  0
 28 21  1  0  0  0  0
 11 12  1  0  0  0  0
 13 17  1  6  0  0  0
  8  9  1  0  0  0  0
 17 18  1  0  0  0  0
 26  1  1  0  0  0  0
M  END
>  <ID_NEW>
CPDMM2302

>  <pIC50>
5.0

$$$$

  -MTS-   10172316422D 0   0.00000     0.00000     0

 34 37  0  0  1  0  0  0  0  0999 V2000
   -2.2500    1.9210    0.0000 S   0  0  0  0  0  0  0  0  0  0  0  0
   -1.4360    2.0530    0.0000 C   0  0  0  0  0  0  0  0  0  0  0  0
   -0.9150    1.4120    0.0000 C   0  0  0  0  0  0  0  0  0  0  0  0
   -0.1020    1.5440    0.0000 C   0  0  0  0  0  0  0  0  0  0  0  0
    0.1910    2.3160    0.0000 C   0  0  0  0  0  0  0  0  0  0  0  0
   -0.3350    2.9560    0.0000 C   0  0  0  0  0  0  0  0  0  0  0  0
   -1.1470    2.8210    0.0000 C   0  0  0  0  0  0  0  0  0  0  0  0
    1.0060    2.4490    0.0000 O   0  0  0  0  0  0  0  0  0  0  0  0
    1.8170    2.5820    0.0000 C   0  0  0  0  0  0  0  0  0  0  0  0
    2.3370    1.9430    0.0000 C   0  0  0  0  0  0  0  0  0  0  0  0
    3.1480    2.0760    0.0000 C   0  0  0  0  0  0  0  0  0  0  0  0
    3.4400    2.8460    0.0000 C   0  0  0  0  0  0  0  0  0  0  0  0
    2.9140    3.4840    0.0000 C   0  0  0  0  0  0  0  0  0  0  0  0
    2.1040    3.3480    0.0000 C   0  0  0  0  0  0  0  0  0  0  0  0
    4.2530    2.9810    0.0000 S   0  0  0  0  0  0  0  0  0  0  0  0
    5.0660    3.1150    0.0000 C   0  0  0  0  0  0  0  0  0  0  0  0
    4.1150    3.7960    0.0000 O   0  0  0  0  0  0  0  0  0  0  0  0
    4.3800    2.1670    0.0000 O   0  0  0  0  0  0  0  0  0  0  0  0
   -2.8920    1.4030    0.0000 O   0  0  0  0  0  0  0  0  0  0  0  0
   -1.9120    1.1690    0.0000 O   0  0  0  0  0  0  0  0  0  0  0  0
   -5.8310    3.1540    0.0000 C   0  0  0  0  0  0  0  0  0  0  0  0
   -5.8320    2.3270    0.0000 C   0  0  0  0  0  0  0  0  0  0  0  0
   -5.1170    1.9140    0.0000 C   0  0  0  0  0  0  0  0  0  0  0  0
   -5.1190    3.5670    0.0000 C   0  0  0  0  0  0  0  0  0  0  0  0
   -4.4030    3.1580    0.0000 C   0  0  0  0  0  0  0  0  0  0  0  0
   -4.4000    2.3250    0.0000 C   0  0  0  0  0  0  0  0  0  0  0  0
   -3.6810    1.9130    0.0000 C   0  0  1  0  0  0  0  0  0  0  0  0
   -2.9600    2.3310    0.0000 N   0  0  0  0  0  0  0  0  0  0  0  0
   -2.9640    3.1640    0.0000 C   0  0  0  0  0  0  0  0  0  0  0  0
   -3.6880    3.5800    0.0000 C   0  0  0  0  0  0  0  0  0  0  0  0
   -3.6780    1.0880    0.0000 C   0  0  0  0  0  0  0  0  0  0  0  0
   -4.3900    0.6700    0.0000 O   0  0  0  0  0  0  0  0  0  0  0  0
   -2.9610    0.6740    0.0000 O   0  0  0  0  0  0  0  0  0  0  0  0
   -1.2090    0.6410    0.0000 C   0  0  0  0  0  0  0  0  0  0  0  0
  1  2  1  0  0  0  0
  2  3  2  0  0  0  0
  3  4  1  0  0  0  0
  4  5  2  0  0  0  0
  5  6  1  0  0  0  0
  6  7  2  0  0  0  0
  7  2  1  0  0  0  0
  5  8  1  0  0  0  0
  8  9  1  0  0  0  0
  9 10  2  0  0  0  0
 10 11  1  0  0  0  0
 11 12  2  0  0  0  0
 12 13  1  0  0  0  0
 13 14  2  0  0  0  0
 14  9  1  0  0  0  0
 12 15  1  0  0  0  0
 15 16  1  0  0  0  0
 15 17  2  0  0  0  0
 15 18  2  0  0  0  0
  1 19  2  0  0  0  0
  1 20  2  0  0  0  0
 21 22  2  0  0  0  0
 22 23  1  0  0  0  0
 23 26  2  0  0  0  0
 25 24  2  0  0  0  0
 24 21  1  0  0  0  0
 25 26  1  0  0  0  0
 25 30  1  0  0  0  0
 26 27  1  0  0  0  0
 27 28  1  0  0  0  0
 28 29  1  0  0  0  0
 29 30  1  0  0  0  0
 27 31  1  1  0  0  0
 31 32  1  0  0  0  0
 31 33  2  0  0  0  0
 28  1  1  0  0  0  0
  3 34  1  0  0  0  0
M  END
>  <ID_NEW>
CPDMM2303

>  <pIC50>
5.0

$$$$

  SciTegic12180812512D

 31 34  0  0  0  0            999 V2000
   -1.8583    0.0917    0.0000 C   0  0
   -1.5208    0.6958    0.0000 C   0  0
   -0.9375    1.1083    0.0000 C   0  0
   -1.1458    0.4500    0.0000 C   0  0
   -1.0833    1.8542    0.0000 C   0  0
   -0.2083    0.6833    0.0000 C   0  0
   -0.4792    0.1083    0.0000 N   0  0
   -0.2130   -0.6726    0.0000 S   0  0
   -0.7562   -1.2935    0.0000 O   0  0
    0.5963   -0.8325    0.0000 C   0  0
   -1.0362   -0.7275    0.0000 O   0  0
    0.5795    0.9283    0.0000 C   0  0
    1.1855    0.3685    0.0000 O   0  0
    0.7612    1.7330    0.0000 O   0  0
    0.8587   -1.6123    0.0000 C   0  0
    1.6672   -1.7724    0.0000 N   0  0
    2.2113   -1.1511    0.0000 C   0  0
    1.9412   -0.3671    0.0000 C   0  0
    1.1334   -0.2106    0.0000 C   0  0
    3.0209   -1.3100    0.0000 O   0  0
    3.2881   -2.0905    0.0000 C   0  0
    2.7445   -2.7085    0.0000 C   0  0
    3.0111   -3.4884    0.0000 C   0  0
    3.8214   -3.6479    0.0000 C   0  0
    4.3646   -3.0213    0.0000 C   0  0
    4.0951   -2.2438    0.0000 C   0  0
    4.0897   -4.4281    0.0000 O   0  0
    4.8994   -4.5859    0.0000 C   0  0
    5.1677   -5.3660    0.0000 F   0  0
    5.4410   -3.9635    0.0000 F   0  0
    4.5375   -5.3272    0.0000 F   0  0
 10 15  2  0
  7  4  1  0
 15 16  1  0
 16 17  2  0
  7  8  1  0
 17 18  1  0
  1  2  1  0
 18 19  2  0
 19 10  1  0
  8  9  2  0
 17 20  1  0
  2  3  1  0
 20 21  1  0
  8 10  1  0
 21 22  2  0
  1  4  1  0
 22 23  1  0
  8 11  2  0
 23 24  2  0
  4  5  1  0
 24 25  1  0
  6 12  1  0
 25 26  2  0
 26 21  1  0
  5  3  1  0
 24 27  1  0
 12 13  1  0
 27 28  1  0
  3  6  1  0
 28 29  1  0
 12 14  2  0
 28 30  1  0
  6  7  1  0
 28 31  1  0
M  END
>  <ID_NEW>
CPDMM2304

>  <pIC50>
5.0

$$$$

  -MTS-   10172316422D 0   0.00000     0.00000     0

 30 33  0  0  1  0  0  0  0  0999 V2000
   -5.8310    3.4040    0.0000 C   0  0  0  0  0  0  0  0  0  0  0  0
   -5.8320    2.5770    0.0000 C   0  0  0  0  0  0  0  0  0  0  0  0
   -5.1170    2.1640    0.0000 C   0  0  0  0  0  0  0  0  0  0  0  0
   -5.1190    3.8170    0.0000 C   0  0  0  0  0  0  0  0  0  0  0  0
   -4.4030    3.4080    0.0000 C   0  0  0  0  0  0  0  0  0  0  0  0
   -4.4000    2.5750    0.0000 C   0  0  0  0  0  0  0  0  0  0  0  0
   -3.6810    2.1630    0.0000 C   0  0  1  0  0  0  0  0  0  0  0  0
   -2.9600    2.5810    0.0000 N   0  0  0  0  0  0  0  0  0  0  0  0
   -2.9640    3.4140    0.0000 C   0  0  0  0  0  0  0  0  0  0  0  0
   -3.6880    3.8300    0.0000 C   0  0  0  0  0  0  0  0  0  0  0  0
   -3.6780    1.3380    0.0000 C   0  0  0  0  0  0  0  0  0  0  0  0
   -4.3900    0.9200    0.0000 O   0  0  0  0  0  0  0  0  0  0  0  0
   -2.9610    0.9240    0.0000 O   0  0  0  0  0  0  0  0  0  0  0  0
   -2.2450    2.1700    0.0000 S   0  0  0  0  0  0  0  0  0  0  0  0
   -2.9620    1.7620    0.0000 O   0  0  0  0  0  0  0  0  0  0  0  0
   -1.8370    1.4580    0.0000 O   0  0  0  0  0  0  0  0  0  0  0  0
   -1.4500    2.3870    0.0000 C   0  0  0  0  0  0  0  0  0  0  0  0
   -0.8650    1.8050    0.0000 C   0  0  0  0  0  0  0  0  0  0  0  0
   -0.0710    2.0220    0.0000 C   0  0  0  0  0  0  0  0  0  0  0  0
    0.1380    2.8200    0.0000 C   0  0  0  0  0  0  0  0  0  0  0  0
   -0.4520    3.4000    0.0000 C   0  0  0  0  0  0  0  0  0  0  0  0
   -1.2440    3.1810    0.0000 C   0  0  0  0  0  0  0  0  0  0  0  0
    0.9340    3.0390    0.0000 O   0  0  0  0  0  0  0  0  0  0  0  0
    1.5210    2.4590    0.0000 C   0  0  0  0  0  0  0  0  0  0  0  0
    1.3100    1.6640    0.0000 C   0  0  0  0  0  0  0  0  0  0  0  0
    1.8970    1.0850    0.0000 C   0  0  0  0  0  0  0  0  0  0  0  0
    2.6930    1.3030    0.0000 C   0  0  0  0  0  0  0  0  0  0  0  0
    2.9000    2.1060    0.0000 C   0  0  0  0  0  0  0  0  0  0  0  0
    2.3120    2.6820    0.0000 C   0  0  0  0  0  0  0  0  0  0  0  0
    3.2750    0.7210    0.0000 Cl  0  0  0  0  0  0  0  0  0  0  0  0
  7  8  1  0  0  0  0
  8  9  1  0  0  0  0
  9 10  1  0  0  0  0
  7 11  1  1  0  0  0
 11 12  1  0  0  0  0
 11 13  2  0  0  0  0
  8 14  1  0  0  0  0
 14 15  2  0  0  0  0
 14 16  2  0  0  0  0
 14 17  1  0  0  0  0
 17 18  2  0  0  0  0
 18 19  1  0  0  0  0
 19 20  2  0  0  0  0
 20 21  1  0  0  0  0
 21 22  2  0  0  0  0
 22 17  1  0  0  0  0
 20 23  1  0  0  0  0
 23 24  1  0  0  0  0
 24 25  2  0  0  0  0
 25 26  1  0  0  0  0
 26 27  2  0  0  0  0
 27 28  1  0  0  0  0
 28 29  2  0  0  0  0
 29 24  1  0  0  0  0
  1  2  2  0  0  0  0
  2  3  1  0  0  0  0
  3  6  2  0  0  0  0
  5  4  2  0  0  0  0
  4  1  1  0  0  0  0
  5  6  1  0  0  0  0
  5 10  1  0  0  0  0
  6  7  1  0  0  0  0
 27 30  1  0  0  0  0
M  END
>  <ID_NEW>
CPDMM2305

>  <pIC50>
5.0

$$$$

  SciTegic12180812542D

 31 34  0  0  0  0            999 V2000
    3.4903   -4.2083    0.0000 C   0  0
    3.4891   -4.9565    0.0000 C   0  0
    4.1372   -5.3319    0.0000 C   0  0
    4.1354   -3.8330    0.0000 C   0  0
    4.7841   -4.2046    0.0000 C   0  0
    4.7875   -4.9586    0.0000 C   0  0
    5.4442   -5.3324    0.0000 C   0  0
    6.0980   -4.9568    0.0000 N   0  0
    6.0946   -4.1987    0.0000 C   0  0
    5.4374   -3.8203    0.0000 C   0  0
    6.7469   -5.3299    0.0000 S   0  0
    5.4465   -6.0824    0.0000 C   0  0
    4.7956   -6.4593    0.0000 O   0  0
    6.0954   -6.4555    0.0000 O   0  0
    6.7491   -6.0798    0.0000 O   0  0
    7.3977   -4.9529    0.0000 C   0  0
    6.2193   -5.8607    0.0000 O   0  0
    8.0427   -5.3291    0.0000 C   0  0
    8.6930   -4.9528    0.0000 N   0  0
    8.6912   -4.2020    0.0000 C   0  0
    8.0373   -3.8291    0.0000 C   0  0
    7.3899   -4.2077    0.0000 C   0  0
    9.3374   -3.8241    0.0000 O   0  0
    9.9911   -4.1962    0.0000 C   0  0
    9.9923   -4.9469    0.0000 C   0  0
   10.6409   -5.3189    0.0000 C   0  0
   11.2879   -4.9410    0.0000 C   0  0
   11.2861   -4.1867    0.0000 C   0  0
   10.6328   -3.8184    0.0000 C   0  0
    4.1357   -6.0809    0.0000 F   0  0
    4.1329   -3.0854    0.0000 C   0  0
  5  4  2  0
 12 14  1  0
  4  1  1  0
 11 15  2  0
  5 10  1  0
 11 16  1  0
  6  7  1  0
 11 17  2  0
  7  8  1  0
 16 18  2  0
  8  9  1  0
 18 19  1  0
  9 10  1  0
 19 20  2  0
  5  6  1  0
 20 21  1  0
 21 22  2  0
 22 16  1  0
 20 23  1  0
 23 24  1  0
  2  3  1  0
 24 25  2  0
  8 11  1  0
 25 26  1  0
  3  6  2  0
 26 27  2  0
  7 12  1  0
 27 28  1  0
  1  2  2  0
 28 29  2  0
 29 24  1  0
  3 30  1  0
 12 13  2  0
  4 31  1  0
M  END
>  <ID_NEW>
CPDMM2306

>  <pIC50>
5.0

$$$$

  -MTS-   10172316422D 0   0.00000     0.00000     0

 31 34  0  0  1  0  0  0  0  0999 V2000
    0.0860   -1.5170    0.0000 C   0  0  0  0  0  0  0  0  0  0  0  0
    0.0850   -2.3440    0.0000 C   0  0  0  0  0  0  0  0  0  0  0  0
    0.8000   -2.7570    0.0000 C   0  0  0  0  0  0  0  0  0  0  0  0
    0.7980   -1.1040    0.0000 C   0  0  0  0  0  0  0  0  0  0  0  0
    1.5130   -1.5130    0.0000 C   0  0  0  0  0  0  0  0  0  0  0  0
    1.5120   -2.3410    0.0000 C   0  0  0  0  0  0  0  0  0  0  0  0
    2.2250   -2.6630    0.0000 C   0  0  1  0  0  0  0  0  0  0  0  0
    2.9440   -2.3430    0.0000 N   0  0  0  0  0  0  0  0  0  0  0  0
    2.9450   -1.5150    0.0000 C   0  0  0  0  0  0  0  0  0  0  0  0
    2.2270   -1.0970    0.0000 C   0  0  0  0  0  0  0  0  0  0  0  0
    3.6350   -2.7930    0.0000 S   0  0  0  0  0  0  0  0  0  0  0  0
    4.3460   -3.2040    0.0000 C   0  0  0  0  0  0  0  0  0  0  0  0
    3.2040   -3.4970    0.0000 O   0  0  0  0  0  0  0  0  0  0  0  0
    4.0700   -2.0930    0.0000 O   0  0  0  0  0  0  0  0  0  0  0  0
    4.3430   -4.0260    0.0000 C   0  0  0  0  0  0  0  0  0  0  0  0
    5.0530   -4.4360    0.0000 N   0  0  0  0  0  0  0  0  0  0  0  0
    5.7650   -4.0260    0.0000 C   0  0  0  0  0  0  0  0  0  0  0  0
    5.7620   -3.2010    0.0000 C   0  0  0  0  0  0  0  0  0  0  0  0
    5.0520   -2.7940    0.0000 C   0  0  0  0  0  0  0  0  0  0  0  0
    6.4790   -4.4380    0.0000 O   0  0  0  0  0  0  0  0  0  0  0  0
    7.1930   -4.0250    0.0000 C   0  0  0  0  0  0  0  0  0  0  0  0
    7.9030   -4.4390    0.0000 C   0  0  0  0  0  0  0  0  0  0  0  0
    8.6170   -4.0270    0.0000 C   0  0  0  0  0  0  0  0  0  0  0  0
    8.6170   -3.2010    0.0000 C   0  0  0  0  0  0  0  0  0  0  0  0
    7.8970   -2.7890    0.0000 C   0  0  0  0  0  0  0  0  0  0  0  0
    7.1860   -3.2040    0.0000 C   0  0  0  0  0  0  0  0  0  0  0  0
    9.3300   -2.7870    0.0000 O   0  0  0  0  0  0  0  0  0  0  0  0
   10.0460   -3.1970    0.0000 C   0  0  0  0  0  0  0  0  0  0  0  0
    2.2230   -3.4450    0.0000 C   0  0  0  0  0  0  0  0  0  0  0  0
    2.8990   -3.8380    0.0000 O   0  0  0  0  0  0  0  0  0  0  0  0
    1.5450   -3.8340    0.0000 O   0  0  0  0  0  0  0  0  0  0  0  0
  5  6  1  0  0  0  0
 15 16  1  0  0  0  0
  2  3  1  0  0  0  0
 16 17  2  0  0  0  0
  3  6  2  0  0  0  0
 17 18  1  0  0  0  0
  1  2  2  0  0  0  0
 18 19  2  0  0  0  0
 19 12  1  0  0  0  0
  5  4  2  0  0  0  0
 17 20  1  0  0  0  0
  4  1  1  0  0  0  0
 20 21  1  0  0  0  0
  5 10  1  0  0  0  0
 21 22  2  0  0  0  0
 22 23  1  0  0  0  0
  8 11  1  0  0  0  0
 23 24  2  0  0  0  0
  6  7  1  0  0  0  0
 24 25  1  0  0  0  0
 11 12  1  0  0  0  0
 25 26  2  0  0  0  0
 26 21  1  0  0  0  0
  7  8  1  0  0  0  0
 24 27  1  0  0  0  0
 11 13  2  0  0  0  0
 27 28  1  0  0  0  0
  8  9  1  0  0  0  0
  7 29  1  1  0  0  0
 11 14  2  0  0  0  0
  9 10  1  0  0  0  0
 29 30  2  0  0  0  0
 12 15  2  0  0  0  0
 29 31  1  0  0  0  0
M  END
>  <ID_NEW>
CPDMM2307

>  <pIC50>
5.0

$$$$

  -MTS-   10172316422D 0   0.00000     0.00000     0

 34 37  0  0  1  0  0  0  0  0999 V2000
   -1.2430    0.6830    0.0000 C   0  0  0  0  0  0  0  0  0  0  0  0
   -1.2440   -0.1440    0.0000 C   0  0  0  0  0  0  0  0  0  0  0  0
   -0.5290   -0.5570    0.0000 C   0  0  0  0  0  0  0  0  0  0  0  0
   -0.5310    1.0960    0.0000 C   0  0  0  0  0  0  0  0  0  0  0  0
    0.1840    0.6870    0.0000 C   0  0  0  0  0  0  0  0  0  0  0  0
    0.1830   -0.1410    0.0000 C   0  0  0  0  0  0  0  0  0  0  0  0
    0.8960   -0.5540    0.0000 C   0  0  1  0  0  0  0  0  0  0  0  0
    1.6150   -0.1430    0.0000 N   0  0  0  0  0  0  0  0  0  0  0  0
    1.6160    0.6850    0.0000 C   0  0  0  0  0  0  0  0  0  0  0  0
    0.8980    1.1020    0.0000 C   0  0  0  0  0  0  0  0  0  0  0  0
    2.3280   -0.5580    0.0000 S   0  0  0  0  0  0  0  0  0  0  0  0
    3.0370   -0.9670    0.0000 C   0  0  0  0  0  0  0  0  0  0  0  0
    2.7330    0.1620    0.0000 O   0  0  0  0  0  0  0  0  0  0  0  0
    1.9290   -1.2800    0.0000 O   0  0  0  0  0  0  0  0  0  0  0  0
    3.0360   -1.7870    0.0000 C   0  0  0  0  0  0  0  0  0  0  0  0
    3.7440   -2.1950    0.0000 N   0  0  0  0  0  0  0  0  0  0  0  0
    4.4540   -1.7850    0.0000 C   0  0  0  0  0  0  0  0  0  0  0  0
    4.4500   -0.9620    0.0000 C   0  0  0  0  0  0  0  0  0  0  0  0
    3.7410   -0.5570    0.0000 C   0  0  0  0  0  0  0  0  0  0  0  0
    5.1690   -2.1960    0.0000 O   0  0  0  0  0  0  0  0  0  0  0  0
    5.8830   -1.7820    0.0000 C   0  0  0  0  0  0  0  0  0  0  0  0
    0.8940   -1.3790    0.0000 C   0  0  0  0  0  0  0  0  0  0  0  0
    0.1780   -1.7900    0.0000 O   0  0  0  0  0  0  0  0  0  0  0  0
    1.6070   -1.7940    0.0000 O   0  0  0  0  0  0  0  0  0  0  0  0
    6.5960   -2.1940    0.0000 C   0  0  0  0  0  0  0  0  0  0  0  0
    7.3090   -1.7800    0.0000 C   0  0  0  0  0  0  0  0  0  0  0  0
    7.3070   -0.9540    0.0000 C   0  0  0  0  0  0  0  0  0  0  0  0
    6.5870   -0.5440    0.0000 C   0  0  0  0  0  0  0  0  0  0  0  0
    5.8770   -0.9600    0.0000 C   0  0  0  0  0  0  0  0  0  0  0  0
    8.0200   -0.5390    0.0000 O   0  0  0  0  0  0  0  0  0  0  0  0
    8.7360   -0.9490    0.0000 C   0  0  0  0  0  0  0  0  0  0  0  0
    9.4490   -0.5340    0.0000 F   0  0  0  0  0  0  0  0  0  0  0  0
    8.7390   -1.7740    0.0000 F   0  0  0  0  0  0  0  0  0  0  0  0
    9.4460   -1.3580    0.0000 F   0  0  0  0  0  0  0  0  0  0  0  0
  7  8  1  0  0  0  0
 16 17  2  0  0  0  0
  8  9  1  0  0  0  0
 17 18  1  0  0  0  0
  9 10  1  0  0  0  0
 18 19  2  0  0  0  0
 19 12  1  0  0  0  0
  5  6  1  0  0  0  0
 17 20  1  0  0  0  0
  2  3  1  0  0  0  0
 20 21  1  0  0  0  0
  3  6  2  0  0  0  0
  7 22  1  1  0  0  0
 22 23  1  0  0  0  0
  8 11  1  0  0  0  0
 22 24  2  0  0  0  0
  1  2  2  0  0  0  0
 21 25  2  0  0  0  0
 11 12  1  0  0  0  0
 25 26  1  0  0  0  0
  5  4  2  0  0  0  0
 26 27  2  0  0  0  0
 11 13  2  0  0  0  0
 27 28  1  0  0  0  0
  4  1  1  0  0  0  0
 28 29  2  0  0  0  0
 29 21  1  0  0  0  0
 11 14  2  0  0  0  0
 27 30  1  0  0  0  0
  5 10  1  0  0  0  0
 30 31  1  0  0  0  0
 12 15  2  0  0  0  0
 31 32  1  0  0  0  0
  6  7  1  0  0  0  0
 31 33  1  0  0  0  0
 15 16  1  0  0  0  0
 31 34  1  0  0  0  0
M  END
>  <ID_NEW>
CPDMM2308

>  <pIC50>
5.0

$$$$

  SciTegic12180812542D

 32 35  0  0  0  0            999 V2000
    3.4778   -4.2124    0.0000 C   0  0
    3.4766   -4.9690    0.0000 C   0  0
    4.1289   -5.3444    0.0000 C   0  0
    4.1271   -3.8331    0.0000 C   0  0
    4.7800   -4.2088    0.0000 C   0  0
    4.7834   -4.9665    0.0000 C   0  0
    5.4361   -5.3380    0.0000 C   0  0
    6.0900   -4.9606    0.0000 N   0  0
    6.0866   -4.2029    0.0000 C   0  0
    5.4293   -3.8268    0.0000 C   0  0
    5.4384   -6.0922    0.0000 C   0  0
    4.7875   -6.4732    0.0000 O   0  0
    6.0915   -6.4694    0.0000 O   0  0
    6.7431   -5.3337    0.0000 S   0  0
    7.3958   -5.7125    0.0000 C   0  0
    7.1219   -4.6815    0.0000 O   0  0
    6.3712   -5.9916    0.0000 O   0  0
    7.3916   -6.4646    0.0000 C   0  0
    8.0394   -6.8392    0.0000 N   0  0
    8.6903   -6.4669    0.0000 C   0  0
    8.6891   -5.7117    0.0000 C   0  0
    8.0408   -5.3366    0.0000 C   0  0
    9.3463   -6.8422    0.0000 O   0  0
    9.9985   -6.4675    0.0000 C   0  0
   10.6478   -6.8475    0.0000 C   0  0
   11.2994   -6.4735    0.0000 C   0  0
   11.3002   -5.7185    0.0000 C   0  0
   10.6434   -5.3392    0.0000 C   0  0
    9.9947   -5.7198    0.0000 C   0  0
    4.1294   -6.0970    0.0000 F   0  0
    4.1246   -3.0798    0.0000 C   0  0
    4.7758   -2.7010    0.0000 C   0  0
  4  1  1  0
  8 14  1  0
  5 10  1  0
 14 15  1  0
  6  7  1  0
 14 16  2  0
  7  8  1  0
 14 17  2  0
  8  9  1  0
 15 18  2  0
  9 10  1  0
 18 19  1  0
  5  6  1  0
 19 20  2  0
 20 21  1  0
 21 22  2  0
 22 15  1  0
 20 23  1  0
  2  3  1  0
 23 24  1  0
 24 25  2  0
  3  6  2  0
 25 26  1  0
  7 11  1  0
 26 27  2  0
  1  2  2  0
 27 28  1  0
 11 12  1  0
 28 29  2  0
 29 24  1  0
  3 30  1  0
  5  4  2  0
  4 31  1  0
 11 13  2  0
 31 32  1  0
M  END
>  <ID_NEW>
CPDMM2309

>  <pIC50>
5.0

$$$$

  SciTegic12180812562D

 33 36  0  0  0  0            999 V2000
    2.9569   -4.2000    0.0000 C   0  0
    2.9557   -4.9523    0.0000 C   0  0
    3.6039   -5.3277    0.0000 C   0  0
    3.6021   -3.8289    0.0000 C   0  0
    4.2550   -4.2005    0.0000 C   0  0
    4.2584   -4.9544    0.0000 C   0  0
    4.9109   -5.3282    0.0000 C   0  0
    5.5646   -4.9527    0.0000 N   0  0
    5.5612   -4.1946    0.0000 C   0  0
    4.9041   -3.8162    0.0000 C   0  0
    4.9132   -6.0782    0.0000 C   0  0
    4.2665   -6.4551    0.0000 O   0  0
    5.5620   -6.4513    0.0000 O   0  0
    6.2177   -5.3258    0.0000 S   0  0
    6.2199   -6.0757    0.0000 O   0  0
    6.8644   -4.9488    0.0000 C   0  0
    5.6859   -5.8565    0.0000 O   0  0
    7.5136   -5.3250    0.0000 C   0  0
    8.1597   -4.9487    0.0000 N   0  0
    8.1579   -4.1979    0.0000 C   0  0
    7.5040   -3.8250    0.0000 C   0  0
    6.8566   -4.2036    0.0000 C   0  0
    8.8082   -3.8200    0.0000 O   0  0
    9.4577   -4.1921    0.0000 C   0  0
    9.4589   -4.9428    0.0000 C   0  0
   10.1076   -5.3148    0.0000 C   0  0
   10.7588   -4.9369    0.0000 C   0  0
   10.7528   -4.1826    0.0000 C   0  0
   10.0995   -3.8143    0.0000 C   0  0
   11.4088   -5.3080    0.0000 O   0  0
   11.4133   -6.0580    0.0000 C   0  0
    3.6014   -6.0767    0.0000 F   0  0
    3.6003   -3.0846    0.0000 C   0  0
  4  1  1  0
 14 15  2  0
  5 10  1  0
 14 16  1  0
  6  7  1  0
 14 17  2  0
  7  8  1  0
 16 18  2  0
  8  9  1  0
 18 19  1  0
  9 10  1  0
 19 20  2  0
  5  6  1  0
 20 21  1  0
 21 22  2  0
 22 16  1  0
 20 23  1  0
 23 24  1  0
  2  3  1  0
 24 25  2  0
  7 11  1  0
 25 26  1  0
  3  6  2  0
 26 27  2  0
 11 12  2  0
 27 28  1  0
  1  2  2  0
 28 29  2  0
 29 24  1  0
 11 13  1  0
 27 30  1  0
  5  4  2  0
 30 31  1  0
  3 32  1  0
  8 14  1  0
  4 33  1  0
M  END
>  <ID_NEW>
CPDMM2310

>  <pIC50>
5.0

$$$$

  SciTegic12180812562D

 36 39  0  0  0  0            999 V2000
    2.8319   -4.2042    0.0000 C   0  0
    2.8308   -4.9565    0.0000 C   0  0
    3.4831   -5.3319    0.0000 C   0  0
    3.4813   -3.8330    0.0000 C   0  0
    4.1300   -4.2046    0.0000 C   0  0
    4.1334   -4.9586    0.0000 C   0  0
    4.7859   -5.3324    0.0000 C   0  0
    5.4438   -4.9568    0.0000 N   0  0
    5.4403   -4.1987    0.0000 C   0  0
    4.7832   -3.8203    0.0000 C   0  0
    4.7881   -6.0824    0.0000 C   0  0
    4.1415   -6.4593    0.0000 O   0  0
    5.4412   -6.4555    0.0000 O   0  0
    6.0928   -5.3299    0.0000 S   0  0
    6.0950   -6.0798    0.0000 O   0  0
    6.7436   -4.9529    0.0000 C   0  0
    5.5651   -5.8607    0.0000 O   0  0
    7.3885   -5.3291    0.0000 C   0  0
    8.0347   -4.9528    0.0000 N   0  0
    8.0371   -4.2020    0.0000 C   0  0
    7.3790   -3.8291    0.0000 C   0  0
    6.7358   -4.2077    0.0000 C   0  0
    8.6832   -3.8241    0.0000 O   0  0
    9.3327   -4.1962    0.0000 C   0  0
    9.3339   -4.9469    0.0000 C   0  0
    9.9867   -5.3189    0.0000 C   0  0
   10.6338   -4.9410    0.0000 C   0  0
   10.6278   -4.1867    0.0000 C   0  0
    9.9786   -3.8184    0.0000 C   0  0
   11.2838   -5.3121    0.0000 O   0  0
   11.2882   -6.0621    0.0000 C   0  0
   11.9424   -6.4332    0.0000 F   0  0
   10.6427   -6.4409    0.0000 F   0  0
   11.8184   -5.5298    0.0000 F   0  0
    3.4826   -6.0845    0.0000 F   0  0
    3.4816   -3.0854    0.0000 C   0  0
 14 16  1  0
  6  7  1  0
 14 17  2  0
  7  8  1  0
 16 18  2  0
  8  9  1  0
 18 19  1  0
  9 10  1  0
 19 20  2  0
  5  6  1  0
 20 21  1  0
 21 22  2  0
 22 16  1  0
 20 23  1  0
 23 24  1  0
  2  3  1  0
 24 25  2  0
  7 11  1  0
 25 26  1  0
  3  6  2  0
 26 27  2  0
 11 12  2  0
 27 28  1  0
  1  2  2  0
 28 29  2  0
 29 24  1  0
 11 13  1  0
 27 30  1  0
  5  4  2  0
 30 31  1  0
  8 14  1  0
 31 32  1  0
  4  1  1  0
 31 33  1  0
 14 15  2  0
 31 34  1  0
  3 35  1  0
  5 10  1  0
  4 36  1  0
M  END
>  <ID_NEW>
CPDMM2311

>  <pIC50>
5.0

$$$$

  SciTegic12180812562D

 31 34  0  0  0  0            999 V2000
    3.4903   -4.2083    0.0000 C   0  0
    3.4891   -4.9565    0.0000 C   0  0
    4.1372   -5.3319    0.0000 C   0  0
    4.1354   -3.8331    0.0000 C   0  0
    4.7841   -4.2047    0.0000 C   0  0
    4.7875   -4.9586    0.0000 C   0  0
    5.4442   -5.3324    0.0000 C   0  0
    6.0980   -4.9569    0.0000 N   0  0
    6.0946   -4.1988    0.0000 C   0  0
    5.4374   -3.8204    0.0000 C   0  0
    5.4465   -6.0824    0.0000 C   0  0
    4.7956   -6.4593    0.0000 O   0  0
    6.0954   -6.4554    0.0000 O   0  0
    6.7469   -5.3299    0.0000 S   0  0
    6.7491   -6.0799    0.0000 O   0  0
    7.3977   -4.9530    0.0000 C   0  0
    6.2193   -5.8607    0.0000 O   0  0
    8.0427   -5.3292    0.0000 C   0  0
    8.6930   -4.9529    0.0000 C   0  0
    8.6912   -4.2020    0.0000 C   0  0
    8.0373   -3.8291    0.0000 C   0  0
    7.3899   -4.2078    0.0000 C   0  0
    9.3374   -3.8241    0.0000 O   0  0
    9.9911   -4.1962    0.0000 C   0  0
    9.9923   -4.9469    0.0000 C   0  0
   10.6409   -5.3190    0.0000 C   0  0
   11.2879   -4.9410    0.0000 N   0  0
   11.2861   -4.1868    0.0000 C   0  0
   10.6328   -3.8185    0.0000 C   0  0
    4.1357   -6.0809    0.0000 F   0  0
    4.1329   -3.0854    0.0000 C   0  0
  5  4  2  0
  8 14  1  0
  4  1  1  0
 14 15  2  0
  5 10  1  0
 14 16  1  0
  6  7  1  0
 14 17  2  0
  7  8  1  0
 16 18  2  0
  8  9  1  0
 18 19  1  0
  9 10  1  0
 19 20  2  0
  5  6  1  0
 20 21  1  0
 21 22  2  0
 22 16  1  0
 20 23  1  0
 23 24  1  0
  2  3  1  0
 24 25  2  0
  7 11  1  0
 25 26  1  0
  3  6  2  0
 26 27  2  0
 11 12  2  0
 27 28  1  0
  1  2  2  0
 28 29  2  0
 29 24  1  0
  3 30  1  0
 11 13  1  0
  4 31  1  0
M  END
>  <ID_NEW>
CPDMM2312

>  <pIC50>
5.0

$$$$

  -MTS-   10172316422D 0   0.00000     0.00000     0

 32 35  0  0  1  0  0  0  0  0999 V2000
    0.0860   -1.5170    0.0000 C   0  0  0  0  0  0  0  0  0  0  0  0
    0.0850   -2.3440    0.0000 C   0  0  0  0  0  0  0  0  0  0  0  0
    0.8000   -2.7570    0.0000 C   0  0  0  0  0  0  0  0  0  0  0  0
    0.7980   -1.1040    0.0000 C   0  0  0  0  0  0  0  0  0  0  0  0
    1.5130   -1.5130    0.0000 C   0  0  0  0  0  0  0  0  0  0  0  0
    1.5120   -2.3410    0.0000 C   0  0  0  0  0  0  0  0  0  0  0  0
    2.2250   -2.6630    0.0000 C   0  0  1  0  0  0  0  0  0  0  0  0
    2.9440   -2.3430    0.0000 N   0  0  0  0  0  0  0  0  0  0  0  0
    2.9450   -1.5150    0.0000 C   0  0  0  0  0  0  0  0  0  0  0  0
    2.2270   -1.0970    0.0000 C   0  0  0  0  0  0  0  0  0  0  0  0
    3.6350   -2.7930    0.0000 S   0  0  0  0  0  0  0  0  0  0  0  0
    4.3460   -3.2040    0.0000 C   0  0  0  0  0  0  0  0  0  0  0  0
    3.2040   -3.4970    0.0000 O   0  0  0  0  0  0  0  0  0  0  0  0
    4.0700   -2.0930    0.0000 O   0  0  0  0  0  0  0  0  0  0  0  0
    4.3430   -4.0260    0.0000 C   0  0  0  0  0  0  0  0  0  0  0  0
    5.0530   -4.4360    0.0000 N   0  0  0  0  0  0  0  0  0  0  0  0
    5.7650   -4.0260    0.0000 C   0  0  0  0  0  0  0  0  0  0  0  0
    5.7620   -3.2010    0.0000 C   0  0  0  0  0  0  0  0  0  0  0  0
    5.0520   -2.7940    0.0000 C   0  0  0  0  0  0  0  0  0  0  0  0
    6.4790   -4.4380    0.0000 O   0  0  0  0  0  0  0  0  0  0  0  0
    7.1930   -4.0250    0.0000 C   0  0  0  0  0  0  0  0  0  0  0  0
    7.9030   -4.4390    0.0000 C   0  0  0  0  0  0  0  0  0  0  0  0
    8.6170   -4.0270    0.0000 C   0  0  0  0  0  0  0  0  0  0  0  0
    8.6170   -3.2010    0.0000 C   0  0  0  0  0  0  0  0  0  0  0  0
    7.8970   -2.7890    0.0000 C   0  0  0  0  0  0  0  0  0  0  0  0
    7.1860   -3.2040    0.0000 C   0  0  0  0  0  0  0  0  0  0  0  0
    9.3300   -2.7870    0.0000 O   0  0  0  0  0  0  0  0  0  0  0  0
   10.0460   -3.1970    0.0000 C   0  0  0  0  0  0  0  0  0  0  0  0
    2.2230   -3.4450    0.0000 C   0  0  0  0  0  0  0  0  0  0  0  0
    2.8990   -3.8380    0.0000 O   0  0  0  0  0  0  0  0  0  0  0  0
    1.5450   -3.8340    0.0000 O   0  0  0  0  0  0  0  0  0  0  0  0
   10.0470   -4.0220    0.0000 C   0  0  0  0  0  0  0  0  0  0  0  0
  5  6  1  0  0  0  0
 15 16  1  0  0  0  0
  2  3  1  0  0  0  0
 16 17  2  0  0  0  0
  3  6  2  0  0  0  0
 17 18  1  0  0  0  0
  1  2  2  0  0  0  0
 18 19  2  0  0  0  0
 19 12  1  0  0  0  0
  5  4  2  0  0  0  0
 17 20  1  0  0  0  0
  4  1  1  0  0  0  0
 20 21  1  0  0  0  0
  5 10  1  0  0  0  0
 21 22  2  0  0  0  0
 22 23  1  0  0  0  0
  8 11  1  0  0  0  0
 23 24  2  0  0  0  0
  6  7  1  0  0  0  0
 24 25  1  0  0  0  0
 11 12  1  0  0  0  0
 25 26  2  0  0  0  0
 26 21  1  0  0  0  0
  7  8  1  0  0  0  0
 24 27  1  0  0  0  0
 11 13  2  0  0  0  0
 27 28  1  0  0  0  0
  8  9  1  0  0  0  0
  7 29  1  1  0  0  0
 11 14  2  0  0  0  0
  9 10  1  0  0  0  0
 29 30  2  0  0  0  0
 12 15  2  0  0  0  0
 29 31  1  0  0  0  0
 28 32  1  0  0  0  0
M  END
>  <ID_NEW>
CPDMM2313

>  <pIC50>
5.0

$$$$

  SciTegic12180812562D

 32 35  0  0  0  0            999 V2000
    3.4819   -4.2124    0.0000 C   0  0
    3.4807   -4.9690    0.0000 C   0  0
    4.1373   -5.3444    0.0000 C   0  0
    4.1355   -3.8331    0.0000 C   0  0
    4.7883   -4.2088    0.0000 C   0  0
    4.7872   -4.9665    0.0000 C   0  0
    5.4376   -5.3419    0.0000 C   0  0
    6.0938   -4.9685    0.0000 N   0  0
    6.0950   -4.2108    0.0000 C   0  0
    5.4400   -3.8267    0.0000 C   0  0
    5.4353   -6.0961    0.0000 C   0  0
    4.7822   -6.4732    0.0000 O   0  0
    6.0861   -6.4772    0.0000 O   0  0
    6.7487   -5.3455    0.0000 S   0  0
    7.3958   -5.7209    0.0000 C   0  0
    6.3625   -5.9917    0.0000 O   0  0
    7.1369   -4.7013    0.0000 O   0  0
    7.3939   -6.4699    0.0000 C   0  0
    8.0402   -6.8410    0.0000 C   0  0
    8.6916   -6.4683    0.0000 C   0  0
    8.6880   -5.7161    0.0000 C   0  0
    8.0370   -5.3445    0.0000 C   0  0
    9.3445   -6.8415    0.0000 O   0  0
    9.9955   -6.4648    0.0000 C   0  0
   10.6461   -6.8396    0.0000 C   0  0
   11.2966   -6.4636    0.0000 C   0  0
   11.2951   -5.7086    0.0000 N   0  0
   10.6371   -5.3313    0.0000 C   0  0
    9.9896   -5.7139    0.0000 C   0  0
    4.1400   -6.1007    0.0000 F   0  0
    4.1341   -3.0798    0.0000 C   0  0
    4.7857   -2.7020    0.0000 C   0  0
  4  1  1  0
  8 14  1  0
  5 10  1  0
 14 15  1  0
  6  7  1  0
 14 16  2  0
  7  8  1  0
 14 17  2  0
  8  9  1  0
 15 18  2  0
  9 10  1  0
 18 19  1  0
  5  6  1  0
 19 20  2  0
 20 21  1  0
 21 22  2  0
 22 15  1  0
 20 23  1  0
  2  3  1  0
 23 24  1  0
 24 25  2  0
  3  6  2  0
 25 26  1  0
  7 11  1  0
 26 27  2  0
  1  2  2  0
 27 28  1  0
 11 12  1  0
 28 29  2  0
 29 24  1  0
  3 30  1  0
  5  4  2  0
  4 31  1  0
 11 13  2  0
 31 32  1  0
M  END
>  <ID_NEW>
CPDMM2314

>  <pIC50>
5.0

$$$$

  -MTS-   10172316422D 0   0.00000     0.00000     0

 30 33  0  0  1  0  0  0  0  0999 V2000
    0.0860   -1.5170    0.0000 C   0  0  0  0  0  0  0  0  0  0  0  0
    0.0850   -2.3440    0.0000 C   0  0  0  0  0  0  0  0  0  0  0  0
    0.8000   -2.7570    0.0000 C   0  0  0  0  0  0  0  0  0  0  0  0
    0.7980   -1.1040    0.0000 C   0  0  0  0  0  0  0  0  0  0  0  0
    1.5130   -1.5130    0.0000 C   0  0  0  0  0  0  0  0  0  0  0  0
    1.5120   -2.3410    0.0000 C   0  0  0  0  0  0  0  0  0  0  0  0
    2.2250   -2.6630    0.0000 C   0  0  1  0  0  0  0  0  0  0  0  0
    2.9440   -2.3430    0.0000 N   0  0  0  0  0  0  0  0  0  0  0  0
    2.9450   -1.5150    0.0000 C   0  0  0  0  0  0  0  0  0  0  0  0
    2.2270   -1.0970    0.0000 C   0  0  0  0  0  0  0  0  0  0  0  0
    3.6350   -2.7930    0.0000 S   0  0  0  0  0  0  0  0  0  0  0  0
    4.3460   -3.2040    0.0000 C   0  0  0  0  0  0  0  0  0  0  0  0
    3.2040   -3.4970    0.0000 O   0  0  0  0  0  0  0  0  0  0  0  0
    4.0700   -2.0930    0.0000 O   0  0  0  0  0  0  0  0  0  0  0  0
    4.3430   -4.0260    0.0000 C   0  0  0  0  0  0  0  0  0  0  0  0
    5.0530   -4.4360    0.0000 N   0  0  0  0  0  0  0  0  0  0  0  0
    5.7650   -4.0260    0.0000 C   0  0  0  0  0  0  0  0  0  0  0  0
    5.7620   -3.2010    0.0000 C   0  0  0  0  0  0  0  0  0  0  0  0
    5.0520   -2.7940    0.0000 C   0  0  0  0  0  0  0  0  0  0  0  0
    6.4790   -4.4380    0.0000 O   0  0  0  0  0  0  0  0  0  0  0  0
    7.1930   -4.0250    0.0000 C   0  0  0  0  0  0  0  0  0  0  0  0
    7.9030   -4.4390    0.0000 C   0  0  0  0  0  0  0  0  0  0  0  0
    8.6170   -4.0270    0.0000 C   0  0  0  0  0  0  0  0  0  0  0  0
    8.6170   -3.2010    0.0000 C   0  0  0  0  0  0  0  0  0  0  0  0
    7.8970   -2.7890    0.0000 C   0  0  0  0  0  0  0  0  0  0  0  0
    7.1860   -3.2040    0.0000 C   0  0  0  0  0  0  0  0  0  0  0  0
    2.2230   -3.4450    0.0000 C   0  0  0  0  0  0  0  0  0  0  0  0
    2.8990   -3.8380    0.0000 O   0  0  0  0  0  0  0  0  0  0  0  0
    1.5450   -3.8340    0.0000 O   0  0  0  0  0  0  0  0  0  0  0  0
    9.3300   -2.7860    0.0000 Cl  0  0  0  0  0  0  0  0  0  0  0  0
  5  6  1  0  0  0  0
 15 16  1  0  0  0  0
  2  3  1  0  0  0  0
 16 17  2  0  0  0  0
  3  6  2  0  0  0  0
 17 18  1  0  0  0  0
  1  2  2  0  0  0  0
 18 19  2  0  0  0  0
 19 12  1  0  0  0  0
  5  4  2  0  0  0  0
 17 20  1  0  0  0  0
  4  1  1  0  0  0  0
 20 21  1  0  0  0  0
  5 10  1  0  0  0  0
 21 22  2  0  0  0  0
 22 23  1  0  0  0  0
  8 11  1  0  0  0  0
 23 24  2  0  0  0  0
  6  7  1  0  0  0  0
 24 25  1  0  0  0  0
 11 12  1  0  0  0  0
 25 26  2  0  0  0  0
 26 21  1  0  0  0  0
  7  8  1  0  0  0  0
 11 13  2  0  0  0  0
  8  9  1  0  0  0  0
  7 27  1  1  0  0  0
 11 14  2  0  0  0  0
  9 10  1  0  0  0  0
 27 28  2  0  0  0  0
 12 15  2  0  0  0  0
 27 29  1  0  0  0  0
 24 30  1  0  0  0  0
M  END
>  <ID_NEW>
CPDMM2315

>  <pIC50>
5.0

$$$$

  -MTS-   10172316422D 0   0.00000     0.00000     0

 30 33  0  0  1  0  0  0  0  0999 V2000
    1.7820   -4.6000    0.0000 C   0  0  0  0  0  0  0  0  0  0  0  0
    1.7810   -5.4270    0.0000 C   0  0  0  0  0  0  0  0  0  0  0  0
    2.4960   -5.8400    0.0000 C   0  0  0  0  0  0  0  0  0  0  0  0
    2.4940   -4.1870    0.0000 C   0  0  0  0  0  0  0  0  0  0  0  0
    3.2090   -4.5960    0.0000 C   0  0  0  0  0  0  0  0  0  0  0  0
    3.2080   -5.4250    0.0000 C   0  0  0  0  0  0  0  0  0  0  0  0
    3.9210   -5.8380    0.0000 C   0  0  1  0  0  0  0  0  0  0  0  0
    4.6400   -5.4270    0.0000 N   0  0  0  0  0  0  0  0  0  0  0  0
    4.6410   -4.5980    0.0000 C   0  0  0  0  0  0  0  0  0  0  0  0
    3.9230   -4.1810    0.0000 C   0  0  0  0  0  0  0  0  0  0  0  0
    5.3530   -5.8410    0.0000 S   0  0  0  0  0  0  0  0  0  0  0  0
    5.7580   -5.1210    0.0000 O   0  0  0  0  0  0  0  0  0  0  0  0
    4.9330   -6.5500    0.0000 O   0  0  0  0  0  0  0  0  0  0  0  0
    3.9190   -6.6630    0.0000 C   0  0  0  0  0  0  0  0  0  0  0  0
    3.2030   -7.0730    0.0000 O   0  0  0  0  0  0  0  0  0  0  0  0
    4.6320   -7.0770    0.0000 O   0  0  0  0  0  0  0  0  0  0  0  0
    6.0650   -6.2580    0.0000 C   0  0  0  0  0  0  0  0  0  0  0  0
    6.0540   -7.0840    0.0000 C   0  0  0  0  0  0  0  0  0  0  0  0
    6.7650   -7.5010    0.0000 C   0  0  0  0  0  0  0  0  0  0  0  0
    7.4830   -7.0930    0.0000 C   0  0  0  0  0  0  0  0  0  0  0  0
    7.4860   -6.2640    0.0000 C   0  0  0  0  0  0  0  0  0  0  0  0
    6.7750   -5.8510    0.0000 C   0  0  0  0  0  0  0  0  0  0  0  0
    8.1960   -7.5090    0.0000 O   0  0  0  0  0  0  0  0  0  0  0  0
    8.9080   -7.0920    0.0000 C   0  0  0  0  0  0  0  0  0  0  0  0
    9.6260   -7.5030    0.0000 C   0  0  0  0  0  0  0  0  0  0  0  0
   10.3380   -7.0860    0.0000 C   0  0  0  0  0  0  0  0  0  0  0  0
   10.3330   -6.2590    0.0000 C   0  0  0  0  0  0  0  0  0  0  0  0
    9.6100   -5.8510    0.0000 C   0  0  0  0  0  0  0  0  0  0  0  0
    8.9010   -6.2700    0.0000 C   0  0  0  0  0  0  0  0  0  0  0  0
   11.0440   -5.8410    0.0000 F   0  0  0  0  0  0  0  0  0  0  0  0
  7  8  1  0  0  0  0
 14 15  1  0  0  0  0
  8  9  1  0  0  0  0
 14 16  2  0  0  0  0
  9 10  1  0  0  0  0
 11 17  1  0  0  0  0
  5  6  1  0  0  0  0
 17 18  2  0  0  0  0
  2  3  1  0  0  0  0
 18 19  1  0  0  0  0
  3  6  2  0  0  0  0
 19 20  2  0  0  0  0
  1  2  2  0  0  0  0
 20 21  1  0  0  0  0
  5  4  2  0  0  0  0
 21 22  2  0  0  0  0
 22 17  1  0  0  0  0
 20 23  1  0  0  0  0
  8 11  1  0  0  0  0
 23 24  1  0  0  0  0
  4  1  1  0  0  0  0
 24 25  2  0  0  0  0
 11 12  2  0  0  0  0
 25 26  1  0  0  0  0
  5 10  1  0  0  0  0
 26 27  2  0  0  0  0
 11 13  2  0  0  0  0
 27 28  1  0  0  0  0
  6  7  1  0  0  0  0
 28 29  2  0  0  0  0
 29 24  1  0  0  0  0
  7 14  1  1  0  0  0
 27 30  1  0  0  0  0
M  END
>  <ID_NEW>
CPDMM2316

>  <pIC50>
5.0

$$$$

  SciTegic12180812502D

 33 36  0  0  0  0            999 V2000
   -5.8333    3.4208    0.0000 C   0  0
   -5.8333    2.5958    0.0000 C   0  0
   -5.1130    2.1833    0.0000 C   0  0
   -5.1130    3.8333    0.0000 C   0  0
   -4.4010    3.4208    0.0000 C   0  0
   -4.4041    2.5917    0.0000 C   0  0
   -3.6889    2.1824    0.0000 C   0  0
   -2.9743    2.5935    0.0000 N   0  0
   -2.9712    3.4185    0.0000 C   0  0
   -3.6910    3.8324    0.0000 C   0  0
   -3.6881    1.3560    0.0000 C   0  0
   -4.4026    0.9436    0.0000 O   0  0
   -2.9737    0.9434    0.0000 O   0  0
    3.5083    2.1458    0.0000 S   0  0
    3.1042    2.8750    0.0000 O   0  0
    3.9125    1.4167    0.0000 O   0  0
    4.2375    2.5500    0.0000 C   0  0
   -0.1004    1.7527    0.0000 C   0  0
   -0.8192    2.1634    0.0000 C   0  0
   -1.5316    1.7514    0.0000 C   0  0
   -1.5347    0.9242    0.0000 C   0  0
   -0.8212    0.5093    0.0000 C   0  0
   -0.1083    0.9217    0.0000 C   0  0
    0.6125    0.5042    0.0000 O   0  0
    2.0506    2.1528    0.0000 C   0  0
    1.3400    1.7387    0.0000 C   0  0
    1.3348    0.9142    0.0000 C   0  0
    2.0475    0.4991    0.0000 C   0  0
    2.7697    0.9048    0.0000 C   0  0
    2.7753    1.7341    0.0000 C   0  0
   -2.2542    2.1750    0.0000 S   0  0
   -2.6750    1.4542    0.0000 O   0  0
   -1.8422    2.8898    0.0000 O   0  0
  1  2  1  0
  1  4  1  0
  2  3  1  0
  3  6  1  0
  5  4  1  0
  5  6  1  0
  5 10  1  0
  6  7  1  0
  7  8  1  0
  8  9  1  0
  9 10  1  0
 11 12  1  0
 11 13  2  0
  7 11  1  0
 17 14  1  0
 14 15  2  0
 14 16  2  0
 18 19  2  0
 19 20  1  0
 20 21  2  0
 21 22  1  0
 22 23  2  0
 23 18  1  0
 23 24  1  0
 25 26  2  0
 26 27  1  0
 27 28  2  0
 28 29  1  0
 29 30  2  0
 30 25  1  0
 24 27  1  0
 30 14  1  0
 20 31  1  0
  8 31  1  0
 31 32  2  0
 31 33  2  0
M  END
>  <ID_NEW>
CPDMM2317

>  <pIC50>
5.0

$$$$

  SciTegic12180812502D

 34 37  0  0  0  0            999 V2000
   -2.7150    2.4249    0.0000 N   0  0
   -5.8317    2.4894    0.0000 C   0  0
   -5.5437    1.7138    0.0000 C   0  0
   -4.7295    1.5768    0.0000 C   0  0
   -5.3090    3.1250    0.0000 C   0  0
   -4.2018    2.2175    0.0000 C   0  0
   -4.4958    2.9917    0.0000 C   0  0
   -4.0733    3.7106    0.0000 C   0  0
   -3.4071    1.9648    0.0000 C   0  0
   -3.2514    3.8311    0.0000 C   0  0
   -2.6487    3.2593    0.0000 C   0  0
   -3.2908    1.1480    0.0000 C   0  0
   -3.9399    0.6390    0.0000 O   0  0
   -2.5253    0.8404    0.0000 O   0  0
   -2.0039    2.0067    0.0000 S   0  0
   -1.2861    2.4134    0.0000 C   0  0
   -1.4252    1.4186    0.0000 O   0  0
   -2.0105    1.1817    0.0000 O   0  0
   -0.5790    1.9927    0.0000 C   0  0
    0.1383    2.3987    0.0000 C   0  0
    0.1454    3.2246    0.0000 C   0  0
   -0.5707    3.6427    0.0000 C   0  0
   -1.2851    3.2342    0.0000 C   0  0
    0.8626    3.6322    0.0000 O   0  0
    1.5743    3.2149    0.0000 C   0  0
    1.5667    2.3906    0.0000 C   0  0
    2.2775    1.9734    0.0000 C   0  0
    2.9957    2.3811    0.0000 C   0  0
    2.9987    3.2104    0.0000 C   0  0
    2.2872    3.6239    0.0000 C   0  0
    3.7080    1.9648    0.0000 S   0  0
    4.4246    2.3734    0.0000 O   0  0
    3.1214    1.3846    0.0000 O   0  0
    4.4684    1.6449    0.0000 C   0  0
 15 17  2  0
 15 18  2  0
 16 19  2  0
 19 20  1  0
 20 21  2  0
 21 22  1  0
 22 23  2  0
 23 16  1  0
 21 24  1  0
 24 25  1  0
 25 26  2  0
 26 27  1  0
 27 28  2  0
 28 29  1  0
 29 30  2  0
 30 25  1  0
 28 31  1  0
 31 32  2  0
 31 33  2  0
 31 34  1  0
  2  3  2  0
  3  4  1  0
  4  6  2  0
  7  5  2  0
  5  2  1  0
  6  7  1  0
  7  8  1  0
  6  9  1  0
  8 10  1  0
  9  1  1  0
 10 11  1  0
  1 11  1  0
  9 12  1  0
 12 13  2  0
 12 14  1  0
  1 15  1  0
 15 16  1  0
M  END
>  <ID_NEW>
CPDMM2318

>  <pIC50>
5.0

$$$$

  SciTegic12180813012D

 32 35  0  0  0  0            999 V2000
   -2.3277    2.1583    0.0000 C   0  0
   -2.9726    1.8869    0.0000 S   0  0
   -2.4192    1.4687    0.0000 O   0  0
   -3.3947    1.3361    0.0000 O   0  0
   -1.7772    1.7295    0.0000 C   0  0
   -1.1328    2.0002    0.0000 C   0  0
   -1.0428    2.6901    0.0000 C   0  0
   -1.6033    3.1123    0.0000 C   0  0
   -2.2409    2.8430    0.0000 C   0  0
   -5.8333    3.4041    0.0000 C   0  0
   -5.8333    2.7041    0.0000 C   0  0
   -5.2338    2.3625    0.0000 C   0  0
   -5.2338    3.7541    0.0000 C   0  0
   -4.6301    3.4041    0.0000 C   0  0
   -4.0886    3.8317    0.0000 C   0  0
   -3.4163    3.6754    0.0000 C   0  0
   -3.1140    3.0587    0.0000 C   0  0
   -4.6291    2.7041    0.0000 C   0  0
   -3.4139    2.4320    0.0000 N   0  0
   -4.0863    2.2736    0.0000 C   0  0
   -4.2389    1.5918    0.0000 C   0  0
   -4.9058    1.3886    0.0000 O   0  0
   -3.7287    1.1195    0.0000 O   0  0
   -0.4014    2.9596    0.0000 O   0  0
    0.1527    2.5388    0.0000 C   0  0
    0.0645    1.8502    0.0000 C   0  0
    0.6179    1.4296    0.0000 C   0  0
    1.2601    1.6990    0.0000 C   0  0
    1.3457    2.3931    0.0000 C   0  0
    0.7914    2.8107    0.0000 C   0  0
    1.8136    1.2806    0.0000 C   0  0
    2.3687    0.8601    0.0000 N   0  0
  1  2  1  0
  2  3  2  0
  2  4  2  0
  1  5  2  0
  5  6  1  0
  6  7  2  0
  7  8  1  0
  8  9  2  0
  9  1  1  0
 10 11  1  0
 10 13  1  0
 11 12  1  0
 12 18  1  0
 14 13  1  0
 14 15  1  0
 15 16  1  0
 16 17  1  0
 14 18  1  0
 17 19  1  0
 18 20  1  0
 19 20  1  0
 21 22  1  0
 21 23  2  0
 20 21  1  0
 19  2  1  0
  7 24  1  0
 24 25  1  0
 25 26  2  0
 26 27  1  0
 27 28  2  0
 28 29  1  0
 29 30  2  0
 30 25  1  0
 31 32  3  0
 28 31  1  0
M  END
>  <ID_NEW>
CPDMM2319

>  <pIC50>
5.0

$$$$

  SciTegic12180812132D

 27 29  0  0  0  0            999 V2000
    0.1542   -1.2250    0.0000 S   0  0
    0.8235   -0.7425    0.0000 C   0  0
    0.5667    0.0458    0.0000 C   0  0
   -0.2583    0.0458    0.0000 C   0  0
   -0.5151   -0.7425    0.0000 C   0  0
    1.6077   -0.9986    0.0000 C   0  0
    1.7780   -1.8058    0.0000 O   0  0
    2.2216   -0.4475    0.0000 O   0  0
    1.1500    0.6333    0.0000 S   0  0
    1.9458    0.8500    0.0000 N   0  0
    0.7348    1.3462    0.0000 O   0  0
    0.3500    0.8500    0.0000 O   0  0
    2.5307    0.2670    0.0000 C   0  0
    3.3235    0.4809    0.0000 C   0  0
    3.5380    1.2776    0.0000 N   0  0
    2.9532    1.8606    0.0000 C   0  0
    2.1539    1.6468    0.0000 C   0  0
    4.3333    1.4958    0.0000 C   0  0
    4.9187    0.9134    0.0000 C   0  0
    5.7134    1.1311    0.0000 C   0  0
    5.9228    1.9297    0.0000 C   0  0
    5.3312    2.5104    0.0000 C   0  0
    4.5388    2.2898    0.0000 N   0  0
    6.7181    2.1490    0.0000 C   0  0
    7.3057    1.5699    0.0000 F   0  0
    6.9258    2.9474    0.0000 F   0  0
    6.7241    1.3240    0.0000 F   0  0
  4  5  2  0
  6  7  2  0
  2  3  2  0
  6  8  1  0
 10 17  1  0
 13 14  1  0
 14 15  1  0
 15 16  1  0
 16 17  1  0
  1  2  1  0
 15 18  1  0
  3  9  1  0
 18 19  2  0
  3  4  1  0
 19 20  1  0
  9 10  1  0
 20 21  2  0
  5  1  1  0
 21 22  1  0
  9 11  2  0
 22 23  2  0
 23 18  1  0
 21 24  1  0
  9 12  2  0
 24 25  1  0
 10 13  1  0
 24 26  1  0
  2  6  1  0
 24 27  1  0
M  END
>  <ID_NEW>
CPDMM2320

>  <pIC50>
5.0

$$$$

  -MTS-   10172316422D 0   0.00000     0.00000     0

 27 29  0  0  1  0  0  0  0  0999 V2000
    5.8310   -2.5030    0.0000 N   0  0  0  0  0  0  0  0  0  0  0  0
    6.0210   -3.2250    0.0000 S   0  0  0  0  0  0  0  0  0  0  0  0
    6.2740   -1.8880    0.0000 C   0  0  2  0  0  0  0  0  0  0  0  0
    5.1080   -2.2710    0.0000 C   0  0  1  0  0  0  0  0  0  0  0  0
    5.8250   -1.2770    0.0000 C   0  0  0  0  0  0  0  0  0  0  0  0
    6.2170   -3.9500    0.0000 C   0  0  0  0  0  0  0  0  0  0  0  0
    5.1040   -1.5120    0.0000 C   0  0  1  0  0  0  0  0  0  0  0  0
    6.7460   -3.0290    0.0000 O   0  0  0  0  0  0  0  0  0  0  0  0
    5.2960   -3.4210    0.0000 O   0  0  0  0  0  0  0  0  0  0  0  0
    6.7920   -6.1170    0.0000 C   0  0  0  0  0  0  0  0  0  0  0  0
    6.6020   -5.3950    0.0000 C   0  0  0  0  0  0  0  0  0  0  0  0
    5.6850   -4.4770    0.0000 C   0  0  0  0  0  0  0  0  0  0  0  0
    6.9370   -4.1400    0.0000 C   0  0  0  0  0  0  0  0  0  0  0  0
    5.8760   -5.2010    0.0000 C   0  0  0  0  0  0  0  0  0  0  0  0
    7.1320   -4.8620    0.0000 C   0  0  0  0  0  0  0  0  0  0  0  0
    4.3960   -2.5040    0.0000 C   0  0  0  0  0  0  0  0  0  0  0  0
    4.3890   -1.2860    0.0000 C   0  0  0  0  0  0  0  0  0  0  0  0
    3.9450   -1.8980    0.0000 C   0  0  0  0  0  0  0  0  0  0  0  0
    6.7870   -6.8670    0.0000 C   0  0  0  0  0  0  0  0  0  0  0  0
    7.5170   -6.3080    0.0000 C   0  0  0  0  0  0  0  0  0  0  0  0
    6.1420   -6.4870    0.0000 C   0  0  0  0  0  0  0  0  0  0  0  0
    7.4370   -7.2420    0.0000 C   0  0  0  0  0  0  0  0  0  0  0  0
    7.0210   -1.8870    0.0000 C   0  0  0  0  0  0  0  0  0  0  0  0
    7.3970   -1.2380    0.0000 O   0  0  0  0  0  0  0  0  0  0  0  0
    7.3980   -2.5360    0.0000 O   0  0  0  0  0  0  0  0  0  0  0  0
    5.1000   -0.5120    0.0000 H   0  0  0  0  0  0  0  0  0  0  0  0
    5.1110   -3.2710    0.0000 H   0  0  0  0  0  0  0  0  0  0  0  0
 14 11  2  0  0  0  0
 11 15  1  0  0  0  0
 15 13  2  0  0  0  0
 13  6  1  0  0  0  0
 11 10  1  0  0  0  0
 10 21  1  0  0  0  0
 10 19  1  0  0  0  0
 10 20  1  0  0  0  0
 19 22  1  0  0  0  0
  7 17  1  0  0  0  0
 17 18  1  0  0  0  0
 18 16  1  0  0  0  0
 16  4  1  0  0  0  0
  7  4  1  0  0  0  0
  4  1  1  0  0  0  0
  1  3  1  0  0  0  0
  3  5  1  0  0  0  0
  5  7  1  0  0  0  0
  3 23  1  6  0  0  0
  1  2  1  0  0  0  0
  2  9  2  0  0  0  0
  2  8  2  0  0  0  0
  2  6  1  0  0  0  0
  6 12  2  0  0  0  0
 12 14  1  0  0  0  0
 23 25  1  0  0  0  0
 23 24  2  0  0  0  0
  7 26  1  1  0  0  0
  4 27  1  1  0  0  0
M  END
>  <ID_NEW>
CPDMM2321

>  <pIC50>
5.0

$$$$

  -MTS-   10172316422D 0   0.00000     0.00000     0

 26 28  0  0  1  0  0  0  0  0999 V2000
    5.8310   -2.6860    0.0000 N   0  0  0  0  0  0  0  0  0  0  0  0
    6.0210   -3.4120    0.0000 S   0  0  0  0  0  0  0  0  0  0  0  0
    6.2740   -2.0750    0.0000 C   0  0  2  0  0  0  0  0  0  0  0  0
    5.1080   -2.4580    0.0000 C   0  0  1  0  0  0  0  0  0  0  0  0
    5.8250   -1.4650    0.0000 C   0  0  0  0  0  0  0  0  0  0  0  0
    6.2170   -4.1330    0.0000 C   0  0  0  0  0  0  0  0  0  0  0  0
    5.1040   -1.7000    0.0000 C   0  0  1  0  0  0  0  0  0  0  0  0
    6.7460   -3.2120    0.0000 O   0  0  0  0  0  0  0  0  0  0  0  0
    5.2960   -3.6040    0.0000 O   0  0  0  0  0  0  0  0  0  0  0  0
    6.7920   -6.3000    0.0000 C   0  0  0  0  0  0  0  0  0  0  0  0
    6.6020   -5.5820    0.0000 C   0  0  0  0  0  0  0  0  0  0  0  0
    5.6850   -4.6640    0.0000 C   0  0  0  0  0  0  0  0  0  0  0  0
    6.9370   -4.3270    0.0000 C   0  0  0  0  0  0  0  0  0  0  0  0
    5.8760   -5.3840    0.0000 C   0  0  0  0  0  0  0  0  0  0  0  0
    7.1320   -5.0490    0.0000 C   0  0  0  0  0  0  0  0  0  0  0  0
    4.3960   -2.6880    0.0000 C   0  0  0  0  0  0  0  0  0  0  0  0
    4.3890   -1.4690    0.0000 C   0  0  0  0  0  0  0  0  0  0  0  0
    3.9450   -2.0850    0.0000 C   0  0  0  0  0  0  0  0  0  0  0  0
    7.5170   -6.4960    0.0000 C   0  0  0  0  0  0  0  0  0  0  0  0
    6.1420   -6.6710    0.0000 C   0  0  0  0  0  0  0  0  0  0  0  0
    6.7870   -7.0500    0.0000 C   0  0  0  0  0  0  0  0  0  0  0  0
    7.0210   -2.0750    0.0000 C   0  0  0  0  0  0  0  0  0  0  0  0
    7.3970   -1.4210    0.0000 O   0  0  0  0  0  0  0  0  0  0  0  0
    7.3980   -2.7190    0.0000 O   0  0  0  0  0  0  0  0  0  0  0  0
    5.1020   -0.7000    0.0000 H   0  0  0  0  0  0  0  0  0  0  0  0
    5.1110   -3.4580    0.0000 H   0  0  0  0  0  0  0  0  0  0  0  0
 14 11  2  0  0  0  0
 11 15  1  0  0  0  0
 15 13  2  0  0  0  0
 13  6  1  0  0  0  0
 11 10  1  0  0  0  0
 10 20  1  0  0  0  0
 10 21  1  0  0  0  0
 10 19  1  0  0  0  0
  7 17  1  0  0  0  0
 17 18  1  0  0  0  0
 18 16  1  0  0  0  0
 16  4  1  0  0  0  0
  7  4  1  0  0  0  0
  4  1  1  0  0  0  0
  1  3  1  0  0  0  0
  3  5  1  0  0  0  0
  5  7  1  0  0  0  0
  3 22  1  6  0  0  0
  1  2  1  0  0  0  0
  2  9  2  0  0  0  0
  2  8  2  0  0  0  0
  2  6  1  0  0  0  0
  6 12  2  0  0  0  0
 12 14  1  0  0  0  0
 22 24  1  0  0  0  0
 22 23  2  0  0  0  0
  7 25  1  1  0  0  0
  4 26  1  1  0  0  0
M  END
>  <ID_NEW>
CPDMM2322

>  <pIC50>
5.0

$$$$

  SciTegic12180812312D

 32 34  0  0  0  0            999 V2000
    1.3777    1.7375    0.0000 N   0  0
    1.3766    0.9102    0.0000 C   0  0
    2.0914    0.4973    0.0000 C   0  0
    2.8078    0.9106    0.0000 C   0  0
    2.8050    1.7412    0.0000 N   0  0
    2.0896    2.1503    0.0000 C   0  0
    0.6618    0.4982    0.0000 C   0  0
   -0.0524    0.9113    0.0000 N   0  0
    0.6611   -0.3268    0.0000 O   0  0
    3.5230    0.4993    0.0000 C   0  0
    3.5242   -0.3257    0.0000 O   0  0
    4.2368    0.9129    0.0000 N   0  0
    4.9519    0.5015    0.0000 C   0  0
    5.6657    0.9151    0.0000 C   0  0
    6.3795    0.5024    0.0000 C   0  0
    7.0929    0.9153    0.0000 C   0  0
    7.0920    1.7412    0.0000 C   0  0
    6.3719    2.1524    0.0000 C   0  0
    5.6615    1.7371    0.0000 C   0  0
    7.8053    2.1558    0.0000 F   0  0
    7.8078    0.5036    0.0000 O   0  0
   -0.7708    0.5042    0.0000 C   0  0
   -1.4820    0.9224    0.0000 C   0  0
   -1.4712    1.7458    0.0000 C   0  0
   -2.1815    2.1640    0.0000 C   0  0
   -2.9002    1.7572    0.0000 C   0  0
   -2.9042    0.9279    0.0000 C   0  0
   -2.1933    0.5135    0.0000 C   0  0
   -3.6119    2.1745    0.0000 F   0  0
   -3.6206    0.5187    0.0000 O   0  0
   -4.3332    0.9344    0.0000 C   0  0
    8.5218    0.9169    0.0000 C   0  0
 15 16  1  0
  7  8  1  0
 16 17  2  0
 17 18  1  0
  7  9  2  0
 18 19  2  0
 19 14  1  0
  4  5  1  0
 17 20  1  0
  4 10  1  0
 16 21  1  0
  2  3  1  0
  8 22  1  0
 10 11  2  0
 22 23  1  0
  5  6  2  0
 23 24  2  0
 10 12  1  0
 24 25  1  0
  6  1  1  0
 25 26  2  0
 12 13  1  0
 26 27  1  0
  1  2  2  0
 27 28  2  0
 28 23  1  0
 13 14  1  0
 26 29  1  0
  2  7  1  0
 27 30  1  0
 14 15  2  0
 30 31  1  0
  3  4  2  0
 21 32  1  0
M  END
>  <ID_NEW>
CPDMM2323

>  <pIC50>
4.657577319177793

$$$$

  -MTS-   10172316422D 0   0.00000     0.00000     0

 25 27  0  0  1  0  0  0  0  0999 V2000
    5.8310   -2.7940    0.0000 N   0  0  0  0  0  0  0  0  0  0  0  0
    6.0210   -3.5170    0.0000 S   0  0  0  0  0  0  0  0  0  0  0  0
    6.2740   -2.1790    0.0000 C   0  0  2  0  0  0  0  0  0  0  0  0
    5.1080   -2.5620    0.0000 C   0  0  1  0  0  0  0  0  0  0  0  0
    5.8250   -1.5690    0.0000 C   0  0  0  0  0  0  0  0  0  0  0  0
    6.2170   -4.2460    0.0000 C   0  0  0  0  0  0  0  0  0  0  0  0
    5.1040   -1.8040    0.0000 C   0  0  1  0  0  0  0  0  0  0  0  0
    6.7500   -3.3210    0.0000 O   0  0  0  0  0  0  0  0  0  0  0  0
    5.2920   -3.7170    0.0000 O   0  0  0  0  0  0  0  0  0  0  0  0
    6.6020   -5.6990    0.0000 C   0  0  0  0  0  0  0  0  0  0  0  0
    6.7920   -6.4210    0.0000 C   0  0  0  0  0  0  0  0  0  0  0  0
    6.9410   -4.4380    0.0000 C   0  0  0  0  0  0  0  0  0  0  0  0
    5.6810   -4.7740    0.0000 C   0  0  0  0  0  0  0  0  0  0  0  0
    7.5090   -6.6110    0.0000 O   0  0  0  0  0  0  0  0  0  0  0  0
    7.1350   -5.1640    0.0000 C   0  0  0  0  0  0  0  0  0  0  0  0
    5.8730   -5.5030    0.0000 C   0  0  0  0  0  0  0  0  0  0  0  0
    4.3960   -2.7960    0.0000 C   0  0  0  0  0  0  0  0  0  0  0  0
    4.3890   -1.5780    0.0000 C   0  0  0  0  0  0  0  0  0  0  0  0
    3.9450   -2.1890    0.0000 C   0  0  0  0  0  0  0  0  0  0  0  0
    6.2580   -6.9500    0.0000 C   0  0  0  0  0  0  0  0  0  0  0  0
    7.0210   -2.1790    0.0000 C   0  0  0  0  0  0  0  0  0  0  0  0
    7.3970   -1.5300    0.0000 O   0  0  0  0  0  0  0  0  0  0  0  0
    7.3980   -2.8280    0.0000 O   0  0  0  0  0  0  0  0  0  0  0  0
    5.1000   -0.8040    0.0000 H   0  0  0  0  0  0  0  0  0  0  0  0
    5.1110   -3.5620    0.0000 H   0  0  0  0  0  0  0  0  0  0  0  0
  2  6  1  0  0  0  0
  6 13  2  0  0  0  0
 13 16  1  0  0  0  0
 16 10  2  0  0  0  0
 10 15  1  0  0  0  0
 15 12  2  0  0  0  0
 12  6  1  0  0  0  0
 10 11  1  0  0  0  0
 14 11  2  0  0  0  0
 11 20  1  0  0  0  0
  7 18  1  0  0  0  0
 18 19  1  0  0  0  0
 19 17  1  0  0  0  0
 17  4  1  0  0  0  0
  7  4  1  0  0  0  0
  4  1  1  0  0  0  0
  1  3  1  0  0  0  0
  3  5  1  0  0  0  0
  5  7  1  0  0  0  0
  3 21  1  6  0  0  0
  1  2  1  0  0  0  0
  2  9  2  0  0  0  0
  2  8  2  0  0  0  0
 21 23  1  0  0  0  0
 21 22  2  0  0  0  0
  7 24  1  1  0  0  0
  4 25  1  1  0  0  0
M  END
>  <ID_NEW>
CPDMM2324

>  <pIC50>
4.3979400086720375

$$$$

  SciTegic12180812312D

 28 30  0  0  0  0            999 V2000
   -2.5764    1.9083    0.0000 N   0  0
   -2.5597    1.3190    0.0000 C   0  0
   -2.0468    1.0368    0.0000 C   0  0
   -1.5460    1.3510    0.0000 C   0  0
   -1.5667    1.9519    0.0000 N   0  0
   -2.0840    2.2137    0.0000 C   0  0
   -1.0244    1.0791    0.0000 C   0  0
   -1.0089    0.5005    0.0000 O   0  0
   -0.5347    1.3984    0.0000 N   0  0
   -0.0172    1.1181    0.0000 C   0  0
    0.4723    1.4287    0.0000 C   0  0
   -3.0594    1.0070    0.0000 C   0  0
   -3.5708    1.2777    0.0000 N   0  0
   -3.0390    0.4241    0.0000 O   0  0
   -4.0707    0.9740    0.0000 C   0  0
   -4.5783    1.2447    0.0000 C   0  0
   -4.5948    1.8234    0.0000 C   0  0
   -5.1098    2.1108    0.0000 N   0  0
   -5.0677    0.9406    0.0000 C   0  0
    0.9842    1.1528    0.0000 C   0  0
    1.4816    1.4713    0.0000 C   0  0
    1.4626    2.0549    0.0000 C   0  0
    0.9442    2.3265    0.0000 C   0  0
    0.4539    2.0099    0.0000 C   0  0
   -5.5874    1.2074    0.0000 C   0  0
   -5.6034    1.7886    0.0000 C   0  0
    1.9526    2.3577    0.0000 F   0  0
    2.0042    1.2044    0.0000 Br  0  0
 13 15  1  0
  2  3  1  0
 15 16  1  0
  7  8  2  0
 16 17  2  0
  1  2  2  0
 17 18  1  0
 18 26  2  0
  7  9  1  0
 25 19  2  0
 19 16  1  0
  3  4  2  0
 11 20  2  0
  9 10  1  0
 20 21  1  0
  6  1  1  0
 21 22  2  0
 10 11  1  0
 22 23  1  0
  4  5  1  0
 23 24  2  0
 24 11  1  0
  2 12  1  0
 25 26  1  0
  5  6  2  0
 12 13  1  0
 12 14  2  0
  4  7  1  0
 22 27  1  0
 21 28  1  0
M  END
>  <ID_NEW>
CPDMM2325

>  <pIC50>
4.30102999566398

$$$$

  SciTegic12180812122D

 30 32  0  0  0  0            999 V2000
   -2.1264    1.8917    0.0000 N   0  0
   -2.1276    1.3935    0.0000 C   0  0
   -1.6962    1.1432    0.0000 C   0  0
   -1.2630    1.3940    0.0000 C   0  0
   -1.2659    1.8953    0.0000 N   0  0
   -1.6980    2.1420    0.0000 C   0  0
   -2.5591    1.1441    0.0000 C   0  0
   -2.9940    1.3947    0.0000 N   0  0
   -2.5597    0.6441    0.0000 O   0  0
   -0.8312    1.1451    0.0000 C   0  0
   -0.8299    0.6451    0.0000 O   0  0
   -0.3966    1.3963    0.0000 N   0  0
   -3.4255    1.1452    0.0000 C   0  0
   -3.8564    1.3958    0.0000 C   0  0
    0.0310    1.1474    0.0000 C   0  0
    0.4656    1.3985    0.0000 C   0  0
   -3.8509    1.8926    0.0000 C   0  0
   -4.2850    2.1431    0.0000 C   0  0
   -4.7175    1.8936    0.0000 C   0  0
   -4.7155    1.3935    0.0000 C   0  0
   -4.2849    1.1468    0.0000 C   0  0
    0.8920    1.1483    0.0000 C   0  0
    1.3262    1.3987    0.0000 C   0  0
    1.3253    1.8954    0.0000 C   0  0
    0.8885    2.1441    0.0000 C   0  0
    0.4614    1.8913    0.0000 C   0  0
   -5.1496    1.1416    0.0000 O   0  0
   -5.5777    1.3896    0.0000 C   0  0
    1.7619    1.1495    0.0000 O   0  0
    2.1884    1.3960    0.0000 C   0  0
 12 15  1  0
  3  4  2  0
 15 16  1  0
  7  8  1  0
 14 17  2  0
 17 18  1  0
  7  9  2  0
 18 19  2  0
  4  5  1  0
 19 20  1  0
  4 10  1  0
 20 21  2  0
 21 14  1  0
  2  3  1  0
 16 22  2  0
 10 11  2  0
 22 23  1  0
  5  6  2  0
 23 24  2  0
 10 12  1  0
 24 25  1  0
  6  1  1  0
 25 26  2  0
 26 16  1  0
  8 13  1  0
 20 27  1  0
  1  2  2  0
 27 28  1  0
 13 14  1  0
 23 29  1  0
  2  7  1  0
 29 30  1  0
M  END
>  <ID_NEW>
CPDMM2326

>  <pIC50>
4.154901959985743

$$$$

  SciTegic12180812252D

 36 39  0  0  0  0            999 V2000
    1.1418   -2.1000    0.0000 C   0  0
    1.5664   -2.3460    0.0000 C   0  0
    1.9992   -2.1000    0.0000 C   0  0
    2.4298   -2.3513    0.0000 C   0  0
    2.8614   -2.1021    0.0000 N   0  0
    3.2879   -2.3533    0.0000 C   0  0
    3.7237   -2.1001    0.0000 C   0  0
    4.1504   -2.3530    0.0000 C   0  0
    4.5732   -2.1005    0.0000 C   0  0
    4.5749   -1.5996    0.0000 C   0  0
    4.1519   -1.3527    0.0000 C   0  0
    3.7235   -1.5994    0.0000 C   0  0
    2.4244   -2.8428    0.0000 O   0  0
    0.6986   -2.3513    0.0000 C   0  0
    0.2712   -2.1021    0.0000 N   0  0
   -0.1595   -2.3533    0.0000 C   0  0
    0.6998   -2.8428    0.0000 O   0  0
    1.1418   -1.6001    0.0000 N   0  0
    1.9992   -1.6001    0.0000 N   0  0
    1.5664   -1.3416    0.0000 C   0  0
   -0.5884   -2.1062    0.0000 C   0  0
   -0.5895   -1.6088    0.0000 C   0  0
   -1.0178   -1.3618    0.0000 C   0  0
   -1.4492   -1.6131    0.0000 C   0  0
   -1.4492   -2.1140    0.0000 C   0  0
   -1.0163   -2.3585    0.0000 C   0  0
    5.0097   -1.3509    0.0000 F   0  0
    5.0010   -2.3443    0.0000 Cl  0  0
   -1.8821   -1.3643    0.0000 C   0  0
   -1.8831   -0.8650    0.0000 O   0  0
   -2.3140   -1.6148    0.0000 N   0  0
   -2.7484   -1.3649    0.0000 C   0  0
   -3.1790   -1.6133    0.0000 C   0  0
   -3.1806   -2.1128    0.0000 O   0  0
   -2.7478   -2.3630    0.0000 C   0  0
   -2.3134   -2.1136    0.0000 C   0  0
 22 23  1  0
 14 15  1  0
 23 24  2  0
 15 16  1  0
 24 25  1  0
  4  5  1  0
 25 26  2  0
 26 21  1  0
 14 17  2  0
  5  6  1  0
  6  7  1  0
 10 27  1  0
 18 20  1  0
  9 28  1  0
 19 20  2  0
 24 29  1  0
  3 19  1  0
  1 18  2  0
  7  8  2  0
  8  9  1  0
  9 10  2  0
 10 11  1  0
  1  2  1  0
 11 12  2  0
 12  7  1  0
  2  3  2  0
 29 30  2  0
 29 31  1  0
 31 32  1  0
  4 13  2  0
 16 21  1  0
  1 14  1  0
 21 22  2  0
  3  4  1  0
 31 36  1  0
 32 33  1  0
 33 34  1  0
 34 35  1  0
 35 36  1  0
M  END
>  <ID_NEW>
CPDMM2327

>  <pIC50>
4.154901959985743

$$$$

  SciTegic12180811202D

 26 28  0  0  0  0            999 V2000
    0.6138   -0.1138    0.0000 C   0  0
    0.0000   -0.4655    0.0000 C   0  0
    1.2379   -0.4655    0.0000 C   0  0
    0.6138    0.6034    0.0000 N   0  0
   -0.6138   -0.1138    0.0000 C   0  0
    1.8621   -0.1138    0.0000 N   0  0
    1.2379   -1.1828    0.0000 O   0  0
    0.0000    0.9621    0.0000 C   0  0
   -1.2345   -0.4655    0.0000 C   0  0
   -0.6138    0.6034    0.0000 N   0  0
    2.4793   -0.4655    0.0000 C   0  0
   -1.8621   -0.1138    0.0000 N   0  0
   -1.2345   -1.1828    0.0000 O   0  0
    3.1000   -0.1138    0.0000 C   0  0
   -2.4793   -0.4655    0.0000 C   0  0
    3.1000    0.6034    0.0000 C   0  0
    3.7241   -0.4655    0.0000 C   0  0
   -3.1000   -0.1138    0.0000 C   0  0
    3.7241    0.9621    0.0000 C   0  0
    4.3448   -0.1138    0.0000 C   0  0
   -3.7241   -0.4655    0.0000 C   0  0
   -3.1000    0.6034    0.0000 C   0  0
    4.3448    0.6034    0.0000 C   0  0
   -4.3448   -0.1138    0.0000 C   0  0
   -3.7241    0.9621    0.0000 C   0  0
   -4.3448    0.6034    0.0000 C   0  0
  1  2  2  0
  1  3  1  0
  1  4  1  0
  2  5  1  0
  3  6  1  0
  3  7  2  0
  4  8  2  0
  5  9  1  0
  5 10  2  0
  6 11  1  0
  9 12  1  0
  9 13  2  0
 11 14  1  0
 12 15  1  0
 14 16  2  0
 14 17  1  0
 15 18  1  0
 16 19  1  0
 17 20  2  0
 18 21  2  0
 18 22  1  0
 19 23  2  0
 21 24  1  0
 22 25  2  0
 24 26  2  0
  8 10  1  0
 20 23  1  0
 25 26  1  0
M  END
>  <ID_NEW>
CPDMM2328

>  <pIC50>
4.000000000000001

$$$$

  SciTegic12180812122D

 30 32  0  0  0  0            999 V2000
   -2.1182    1.8875    0.0000 N   0  0
   -2.1193    1.3893    0.0000 C   0  0
   -1.6878    1.1390    0.0000 C   0  0
   -1.2547    1.3898    0.0000 C   0  0
   -1.2575    1.8911    0.0000 N   0  0
   -1.6896    2.1378    0.0000 C   0  0
   -0.8229    1.1409    0.0000 C   0  0
   -0.8217    0.6451    0.0000 O   0  0
   -0.3924    1.3921    0.0000 N   0  0
   -2.5507    1.1399    0.0000 C   0  0
   -2.9816    1.3905    0.0000 N   0  0
   -2.5514    0.6441    0.0000 O   0  0
    0.0394    1.1432    0.0000 C   0  0
    0.4666    1.3958    0.0000 C   0  0
    0.9000    1.1458    0.0000 C   0  0
    1.3291    1.4000    0.0000 C   0  0
   -3.4167    1.1458    0.0000 C   0  0
   -3.8500    1.3958    0.0000 C   0  0
   -4.2834    1.1458    0.0000 C   0  0
   -4.7167    1.3958    0.0000 C   0  0
   -4.7150    1.8988    0.0000 C   0  0
   -5.1475    2.1487    0.0000 C   0  0
   -5.5765    1.8967    0.0000 C   0  0
   -5.5770    1.3948    0.0000 C   0  0
   -5.1439    1.1444    0.0000 C   0  0
    1.7625    1.1508    0.0000 C   0  0
    2.1912    1.4002    0.0000 C   0  0
    2.1911    1.9014    0.0000 C   0  0
    1.7565    2.1475    0.0000 C   0  0
    1.3266    1.8957    0.0000 C   0  0
 14 15  1  0
  3  4  2  0
 15 16  1  0
  7  8  2  0
 11 17  1  0
 17 18  1  0
  7  9  1  0
 18 19  1  0
  4  5  1  0
 19 20  1  0
  2 10  1  0
 20 21  2  0
  2  3  1  0
 21 22  1  0
 10 11  1  0
 22 23  2  0
  5  6  2  0
 23 24  1  0
 10 12  2  0
 24 25  2  0
 25 20  1  0
  6  1  1  0
 16 26  2  0
  9 13  1  0
 26 27  1  0
  1  2  2  0
 27 28  2  0
 13 14  1  0
 28 29  1  0
  4  7  1  0
 29 30  2  0
 30 16  1  0
M  END
>  <ID_NEW>
CPDMM2329

>  <pIC50>
4.0

$$$$

  SciTegic12180812122D

 30 32  0  0  0  0            999 V2000
   -2.2015    2.0584    0.0000 N   0  0
   -2.2026    1.4977    0.0000 C   0  0
   -1.7211    1.2140    0.0000 C   0  0
   -1.2380    1.4982    0.0000 C   0  0
   -1.2408    2.0620    0.0000 N   0  0
   -1.7229    2.3378    0.0000 C   0  0
   -0.7562    1.2159    0.0000 C   0  0
   -0.7550    0.6575    0.0000 O   0  0
   -0.2757    1.5046    0.0000 N   0  0
   -2.6881    1.2149    0.0000 C   0  0
   -3.1649    1.4989    0.0000 N   0  0
   -2.6888    0.6565    0.0000 O   0  0
    0.2020    1.2223    0.0000 C   0  0
    0.6792    1.5083    0.0000 C   0  0
    1.1667    1.2249    0.0000 C   0  0
   -3.6459    1.2249    0.0000 C   0  0
   -4.1375    1.5083    0.0000 C   0  0
   -4.6209    1.2249    0.0000 C   0  0
   -4.1364    2.0658    0.0000 C   0  0
    0.6744    2.0584    0.0000 C   0  0
    1.1638    0.6620    0.0000 C   0  0
    1.6506    0.3787    0.0000 C   0  0
    2.1394    0.6615    0.0000 C   0  0
    2.1374    1.2274    0.0000 C   0  0
    1.6500    1.5073    0.0000 C   0  0
   -5.1063    1.5067    0.0000 C   0  0
   -5.5935    1.2239    0.0000 C   0  0
   -5.5874    0.6647    0.0000 C   0  0
   -5.0970    0.3856    0.0000 C   0  0
   -4.6167    0.6663    0.0000 C   0  0
  1  2  2  0
 13 14  1  0
  4  7  1  0
 14 15  1  0
  3  4  2  0
  7  8  2  0
 17 19  1  0
 11 16  1  0
 14 20  1  0
 16 17  1  0
  7  9  1  0
 15 21  2  0
 17 18  1  0
 21 22  1  0
  4  5  1  0
 22 23  2  0
  2 10  1  0
 23 24  1  0
  2  3  1  0
 24 25  2  0
 25 15  1  0
 10 11  1  0
 18 26  2  0
  5  6  2  0
 26 27  1  0
 10 12  2  0
 27 28  2  0
  6  1  1  0
 28 29  1  0
  9 13  1  0
 29 30  2  0
 30 18  1  0
M  END
>  <ID_NEW>
CPDMM2330

>  <pIC50>
4.0

$$$$

  SciTegic12180812122D

 26 28  0  0  0  0            999 V2000
   -2.3098    2.0376    0.0000 N   0  0
   -2.3109    1.3977    0.0000 C   0  0
   -1.7628    1.0765    0.0000 C   0  0
   -1.2130    1.3982    0.0000 C   0  0
   -1.2158    2.0412    0.0000 N   0  0
   -1.7646    2.3545    0.0000 C   0  0
   -0.6645    1.0784    0.0000 C   0  0
   -0.6633    0.4408    0.0000 O   0  0
   -0.1174    1.4088    0.0000 N   0  0
   -2.8631    1.0774    0.0000 C   0  0
   -3.4066    1.3989    0.0000 N   0  0
   -2.8638    0.4398    0.0000 O   0  0
   -3.9542    1.0874    0.0000 C   0  0
    0.4292    1.0917    0.0000 C   0  0
    0.9708    1.4125    0.0000 C   0  0
   -4.5041    1.4084    0.0000 C   0  0
    1.5227    1.0935    0.0000 N   0  0
    2.0640    1.4139    0.0000 C   0  0
    2.0621    2.0440    0.0000 C   0  0
    1.5108    2.3568    0.0000 C   0  0
    0.9673    2.0390    0.0000 C   0  0
   -4.5111    2.0500    0.0000 C   0  0
   -5.0647    2.3667    0.0000 C   0  0
   -5.6175    2.0425    0.0000 C   0  0
   -5.6139    1.3987    0.0000 C   0  0
   -5.0558    1.0845    0.0000 N   0  0
  6  1  1  0
  9 14  1  0
  1  2  2  0
 14 15  1  0
  4  7  1  0
 13 16  1  0
  3  4  2  0
 15 17  2  0
  7  8  2  0
 17 18  1  0
 11 13  1  0
 18 19  2  0
  7  9  1  0
 19 20  1  0
  4  5  1  0
 20 21  2  0
 21 15  1  0
  2 10  1  0
 16 22  2  0
  2  3  1  0
 22 23  1  0
 10 11  1  0
 23 24  2  0
  5  6  2  0
 24 25  1  0
 10 12  2  0
 25 26  2  0
 26 16  1  0
M  END
>  <ID_NEW>
CPDMM2331

>  <pIC50>
4.0

$$$$

  SciTegic12180812122D

 26 28  0  0  0  0            999 V2000
   -2.3848    2.0418    0.0000 N   0  0
   -2.3859    1.3977    0.0000 C   0  0
   -1.8378    1.0807    0.0000 C   0  0
   -1.2880    1.3982    0.0000 C   0  0
   -1.2908    2.0454    0.0000 N   0  0
   -1.8396    2.3587    0.0000 C   0  0
   -0.7395    1.0826    0.0000 C   0  0
   -0.7383    0.4408    0.0000 O   0  0
   -0.1924    1.4130    0.0000 N   0  0
   -2.9381    1.0816    0.0000 C   0  0
   -3.4816    1.3989    0.0000 N   0  0
   -2.9388    0.4398    0.0000 O   0  0
   -4.0292    1.0916    0.0000 C   0  0
    0.3542    1.0959    0.0000 C   0  0
   -4.5692    1.4121    0.0000 C   0  0
    0.9021    1.4107    0.0000 C   0  0
    1.4463    1.0906    0.0000 C   0  0
    1.9939    1.4049    0.0000 C   0  0
    1.9956    2.0375    0.0000 C   0  0
    1.4451    2.3545    0.0000 N   0  0
    0.8998    2.0384    0.0000 C   0  0
   -4.5613    2.0406    0.0000 C   0  0
   -5.1006    2.3611    0.0000 N   0  0
   -5.6490    2.0537    0.0000 C   0  0
   -5.6546    1.4225    0.0000 C   0  0
   -5.1148    1.1049    0.0000 C   0  0
 10 11  1  0
  5  6  2  0
 10 12  2  0
 13 15  1  0
  6  1  1  0
 14 16  1  0
  9 14  1  0
 16 17  2  0
  1  2  2  0
 17 18  1  0
  4  7  1  0
 18 19  2  0
  3  4  2  0
 19 20  1  0
  7  8  2  0
 20 21  2  0
 21 16  1  0
 11 13  1  0
 15 22  2  0
  7  9  1  0
 22 23  1  0
  4  5  1  0
 23 24  2  0
  2 10  1  0
 24 25  1  0
  2  3  1  0
 25 26  2  0
 26 15  1  0
M  END
>  <ID_NEW>
CPDMM2332

>  <pIC50>
4.0

$$$$

  SciTegic12180812122D

 30 32  0  0  0  0            999 V2000
   -2.1265    1.8709    0.0000 N   0  0
   -2.1276    1.3643    0.0000 C   0  0
   -1.7004    1.1224    0.0000 C   0  0
   -1.2671    1.3648    0.0000 C   0  0
   -1.2699    1.8745    0.0000 N   0  0
   -1.7022    2.1128    0.0000 C   0  0
   -0.8437    1.1243    0.0000 C   0  0
   -0.8425    0.6200    0.0000 O   0  0
   -0.4090    1.3755    0.0000 N   0  0
   -2.5589    1.1233    0.0000 C   0  0
   -2.9815    1.3655    0.0000 N   0  0
   -2.5596    0.6190    0.0000 O   0  0
   -3.4125    1.1249    0.0000 C   0  0
    0.0235    1.1299    0.0000 C   0  0
    0.4542    1.3875    0.0000 C   0  0
   -3.8458    1.3708    0.0000 C   0  0
   -4.2813    1.1216    0.0000 C   0  0
   -4.7145    1.3675    0.0000 C   0  0
    0.8949    1.1401    0.0000 C   0  0
    1.3255    1.3935    0.0000 C   0  0
   -4.7131    1.8652    0.0000 C   0  0
   -5.1457    2.1152    0.0000 N   0  0
   -5.5778    1.8618    0.0000 C   0  0
   -5.5740    1.3638    0.0000 C   0  0
   -5.1409    1.1164    0.0000 C   0  0
    1.7601    1.1488    0.0000 C   0  0
    2.1905    1.4017    0.0000 C   0  0
    2.1849    1.9030    0.0000 C   0  0
    1.7491    2.1502    0.0000 N   0  0
    1.3166    1.8958    0.0000 C   0  0
  4  5  1  0
  2 10  1  0
  2  3  1  0
 16 17  1  0
  9 14  1  0
 17 18  1  0
 10 11  1  0
 15 19  1  0
 14 15  1  0
 19 20  1  0
  5  6  2  0
 18 21  2  0
 10 12  2  0
 21 22  1  0
 13 16  1  0
 22 23  2  0
  6  1  1  0
 23 24  1  0
  1  2  2  0
 24 25  2  0
 25 18  1  0
  4  7  1  0
 20 26  2  0
  3  4  2  0
 26 27  1  0
  7  8  2  0
 27 28  2  0
 11 13  1  0
 28 29  1  0
  7  9  1  0
 29 30  2  0
 30 20  1  0
M  END
>  <ID_NEW>
CPDMM2333

>  <pIC50>
4.0

$$$$

  SciTegic12180812122D

 28 30  0  0  0  0            999 V2000
   -2.2098    2.0543    0.0000 N   0  0
   -2.2109    1.4852    0.0000 C   0  0
   -1.7337    1.2141    0.0000 C   0  0
   -1.2463    1.4857    0.0000 C   0  0
   -1.2491    2.0579    0.0000 N   0  0
   -1.7355    2.3295    0.0000 C   0  0
   -0.7687    1.2160    0.0000 C   0  0
   -0.7675    0.6576    0.0000 O   0  0
   -0.2840    1.5005    0.0000 N   0  0
   -2.6964    1.2150    0.0000 C   0  0
   -3.1690    1.4864    0.0000 N   0  0
   -2.6971    0.6566    0.0000 O   0  0
   -3.6500    1.2166    0.0000 C   0  0
    0.1985    1.2258    0.0000 C   0  0
    0.6833    1.5125    0.0000 C   0  0
    1.1667    1.2333    0.0000 C   0  0
   -4.1374    1.4958    0.0000 C   0  0
   -4.6166    1.2166    0.0000 C   0  0
   -5.0968    1.5030    0.0000 C   0  0
   -5.5880    1.2244    0.0000 N   0  0
   -5.5912    0.6688    0.0000 C   0  0
   -5.0985    0.3848    0.0000 C   0  0
   -4.6220    0.6653    0.0000 C   0  0
    1.1595    0.6755    0.0000 C   0  0
    1.6422    0.3965    0.0000 C   0  0
    2.1355    0.6701    0.0000 C   0  0
    2.1342    1.2346    0.0000 N   0  0
    1.6426    1.5108    0.0000 C   0  0
  9 14  1  0
 10 11  1  0
 14 15  1  0
  5  6  2  0
 15 16  1  0
 10 12  2  0
 13 17  1  0
  6  1  1  0
 17 18  1  0
  1  2  2  0
 18 19  2  0
  4  7  1  0
 19 20  1  0
  3  4  2  0
 20 21  2  0
  7  8  2  0
 21 22  1  0
 11 13  1  0
 22 23  2  0
 23 18  1  0
  7  9  1  0
 16 24  2  0
  4  5  1  0
 24 25  1  0
  2 10  1  0
 25 26  2  0
  2  3  1  0
 26 27  1  0
 27 28  2  0
 28 16  1  0
M  END
>  <ID_NEW>
CPDMM2334

>  <pIC50>
4.0

$$$$

  SciTegic12180812122D

 30 32  0  0  0  0            999 V2000
   -2.5056    3.1417    0.0000 N   0  0
   -2.5068    2.5102    0.0000 C   0  0
   -1.9544    2.1931    0.0000 C   0  0
   -1.4088    2.5107    0.0000 C   0  0
   -1.4117    3.1453    0.0000 N   0  0
   -1.9562    3.4586    0.0000 C   0  0
   -0.8604    2.1951    0.0000 C   0  0
   -3.0508    2.1941    0.0000 C   0  0
   -0.8591    1.5618    0.0000 N   0  0
   -0.3174    2.5087    0.0000 O   0  0
   -3.5982    2.5113    0.0000 O   0  0
   -3.0514    1.5608    0.0000 N   0  0
   -0.3107    1.2462    0.0000 C   0  0
   -0.3094    0.6170    0.0000 C   0  0
   -3.5995    1.2488    0.0000 C   0  0
   -3.5974    0.6205    0.0000 C   0  0
   -0.8525    0.3035    0.0000 C   0  0
   -0.8514   -0.3251    0.0000 C   0  0
   -0.3055   -0.6392    0.0000 C   0  0
    0.2405   -0.3201    0.0000 C   0  0
    0.2368    0.3075    0.0000 C   0  0
   -4.1430    0.3078    0.0000 C   0  0
   -4.1412   -0.3198    0.0000 C   0  0
   -3.5956   -0.6327    0.0000 C   0  0
   -3.0508   -0.3134    0.0000 C   0  0
   -3.0553    0.3132    0.0000 C   0  0
   -1.3958    0.6166    0.0000 F   0  0
    0.7781    0.6250    0.0000 F   0  0
   -2.5150    0.6306    0.0000 F   0  0
   -4.6875    0.6223    0.0000 F   0  0
  1  2  2  0
 13 14  1  0
  4  7  1  0
 14 17  2  0
  3  4  2  0
 17 18  1  0
  2  8  1  0
 18 19  2  0
  7  9  1  0
 19 20  1  0
  4  5  1  0
 20 21  2  0
 21 14  1  0
  7 10  2  0
 16 22  2  0
  2  3  1  0
 22 23  1  0
 12 15  1  0
 23 24  2  0
 15 16  1  0
 24 25  1  0
  8 11  2  0
 25 26  2  0
 26 16  1  0
  5  6  2  0
 17 27  1  0
  8 12  1  0
 21 28  1  0
  6  1  1  0
 26 29  1  0
  9 13  1  0
 22 30  1  0
M  END
>  <ID_NEW>
CPDMM2335

>  <pIC50>
4.0

$$$$

  SciTegic12180812122D

 32 36  0  0  0  0            999 V2000
    0.6235    1.7043    0.0000 N   0  0
    0.6224    1.0602    0.0000 C   0  0
    1.1705    0.7432    0.0000 C   0  0
    1.7203    1.0607    0.0000 C   0  0
    1.7175    1.7079    0.0000 N   0  0
    1.1687    2.0212    0.0000 C   0  0
    2.2688    0.7451    0.0000 C   0  0
    2.2700    0.1033    0.0000 O   0  0
    2.8159    1.0755    0.0000 N   0  0
    0.0702    0.7441    0.0000 C   0  0
   -0.4733    1.0614    0.0000 N   0  0
    0.0695    0.1023    0.0000 O   0  0
   -1.0209    0.7541    0.0000 C   0  0
    3.3625    0.7584    0.0000 C   0  0
    3.9041    1.0792    0.0000 C   0  0
   -1.5708    1.0751    0.0000 C   0  0
    4.4560    0.7602    0.0000 C   0  0
    4.4441    2.0235    0.0000 C   0  0
    3.9006    1.7057    0.0000 C   0  0
   -1.5778    1.7167    0.0000 C   0  0
   -2.1314    2.0334    0.0000 C   0  0
   -2.1225    0.7512    0.0000 C   0  0
   -2.6806    1.0612    0.0000 C   0  0
   -2.6834    1.7099    0.0000 C   0  0
   -3.3012    1.9076    0.0000 O   0  0
   -3.6802    1.3811    0.0000 C   0  0
   -3.2966    0.8581    0.0000 C   0  0
    4.9954    1.7107    0.0000 C   0  0
    4.9961    1.0819    0.0000 C   0  0
    5.5944    0.8882    0.0000 C   0  0
    5.9635    1.3973    0.0000 C   0  0
    5.5933    1.9056    0.0000 O   0  0
 17 29  1  0
 11 13  1  0
  7  9  1  0
 28 18  1  0
  4  5  1  0
 18 19  2  0
 19 15  1  0
  2 10  1  0
 16 20  2  0
  2  3  1  0
 20 21  1  0
 10 11  1  0
 21 24  2  0
  5  6  2  0
 10 12  2  0
 23 22  2  0
 22 16  1  0
 23 24  1  0
  6  1  1  0
  9 14  1  0
  1  2  2  0
 14 15  1  0
 24 25  1  0
 25 26  1  0
 26 27  1  0
 27 23  1  0
 28 29  2  0
  4  7  1  0
 13 16  1  0
  3  4  2  0
 15 17  2  0
  7  8  2  0
 29 30  1  0
 30 31  1  0
 31 32  1  0
 32 28  1  0
M  END
>  <ID_NEW>
CPDMM2336

>  <pIC50>
4.0

$$$$

  SciTegic12180812122D

 30 32  0  0  0  0            999 V2000
   -2.3349    1.9085    0.0000 N   0  0
   -2.3360    1.3894    0.0000 C   0  0
   -1.8920    1.1349    0.0000 C   0  0
   -1.4506    1.3899    0.0000 C   0  0
   -1.4534    1.9121    0.0000 N   0  0
   -1.8938    2.1629    0.0000 C   0  0
   -1.0104    1.1368    0.0000 C   0  0
   -1.0092    0.6200    0.0000 O   0  0
   -0.5716    1.4047    0.0000 N   0  0
   -2.7798    1.1358    0.0000 C   0  0
   -3.2150    1.3906    0.0000 N   0  0
   -2.7805    0.6190    0.0000 O   0  0
   -3.6584    1.1458    0.0000 C   0  0
   -0.1334    1.1459    0.0000 C   0  0
    0.3041    1.4042    0.0000 C   0  0
   -4.1000    1.4043    0.0000 C   0  0
    0.7476    1.1477    0.0000 C   0  0
    0.7399    2.1652    0.0000 C   0  0
    0.3006    1.9099    0.0000 C   0  0
   -4.1070    1.9167    0.0000 C   0  0
   -4.5523    2.1709    0.0000 C   0  0
   -4.5434    1.1429    0.0000 C   0  0
   -4.9931    1.3904    0.0000 C   0  0
   -4.9959    1.9141    0.0000 C   0  0
    1.1829    1.9149    0.0000 C   0  0
    1.1836    1.4069    0.0000 C   0  0
   -5.4407    2.1689    0.0000 F   0  0
   -5.4344    1.1280    0.0000 Cl  0  0
    1.6246    1.1564    0.0000 Cl  0  0
    1.6221    2.1716    0.0000 F   0  0
 25 18  1  0
  4  5  1  0
 18 19  2  0
 19 15  1  0
  2 10  1  0
 16 20  2  0
  2  3  1  0
 20 21  1  0
 10 11  1  0
 21 24  2  0
  5  6  2  0
 10 12  2  0
 23 22  2  0
 22 16  1  0
 23 24  1  0
  6  1  1  0
  9 14  1  0
  1  2  2  0
 14 15  1  0
 25 26  2  0
  4  7  1  0
 13 16  1  0
  3  4  2  0
 15 17  2  0
  7  8  2  0
 24 27  1  0
 17 26  1  0
 23 28  1  0
 11 13  1  0
 26 29  1  0
  7  9  1  0
 25 30  1  0
M  END
>  <ID_NEW>
CPDMM2337

>  <pIC50>
4.0

$$$$

  SciTegic12180812122D

 30 32  0  0  0  0            999 V2000
   -2.3641    1.9335    0.0000 N   0  0
   -2.3652    1.3811    0.0000 C   0  0
   -1.8962    1.1099    0.0000 C   0  0
   -1.4256    1.3816    0.0000 C   0  0
   -1.4284    1.9371    0.0000 N   0  0
   -1.8980    2.2046    0.0000 C   0  0
   -0.9562    1.1118    0.0000 C   0  0
   -0.9550    0.5617    0.0000 O   0  0
   -0.4883    1.4005    0.0000 N   0  0
   -2.8423    1.1108    0.0000 C   0  0
   -3.3025    1.3823    0.0000 N   0  0
   -2.8430    0.5607    0.0000 O   0  0
   -3.7751    1.1208    0.0000 C   0  0
   -0.0209    1.1251    0.0000 C   0  0
    0.4458    1.4000    0.0000 C   0  0
   -4.2458    1.4001    0.0000 C   0  0
    0.9184    1.1269    0.0000 C   0  0
    0.9066    2.2069    0.0000 C   0  0
    0.4423    1.9349    0.0000 C   0  0
   -4.2528    1.9417    0.0000 C   0  0
   -4.7273    2.2126    0.0000 C   0  0
   -4.7184    1.1179    0.0000 C   0  0
   -5.1973    1.3821    0.0000 C   0  0
   -5.2001    1.9433    0.0000 C   0  0
    1.3829    1.9441    0.0000 C   0  0
    1.3836    1.4027    0.0000 C   0  0
   -5.6740    2.2147    0.0000 F   0  0
   -5.6677    1.1030    0.0000 F   0  0
    1.8538    1.1314    0.0000 F   0  0
    1.8513    2.2133    0.0000 F   0  0
 25 18  1  0
  4  5  1  0
 18 19  2  0
 19 15  1  0
  2 10  1  0
 16 20  2  0
  2  3  1  0
 20 21  1  0
 10 11  1  0
 21 24  2  0
  5  6  2  0
 10 12  2  0
 23 22  2  0
 22 16  1  0
 23 24  1  0
  6  1  1  0
  9 14  1  0
  1  2  2  0
 14 15  1  0
 25 26  2  0
  4  7  1  0
 13 16  1  0
  3  4  2  0
 15 17  2  0
  7  8  2  0
 24 27  1  0
 17 26  1  0
 23 28  1  0
 11 13  1  0
 26 29  1  0
  7  9  1  0
 25 30  1  0
M  END
>  <ID_NEW>
CPDMM2338

>  <pIC50>
4.0

$$$$

  SciTegic12180812122D

 38 42  0  0  0  0            999 V2000
   -2.5973    3.2751    0.0000 N   0  0
   -2.5985    2.5394    0.0000 C   0  0
   -1.9502    2.1681    0.0000 C   0  0
   -1.3130    2.5399    0.0000 C   0  0
   -1.3159    3.2787    0.0000 N   0  0
   -1.9520    3.6503    0.0000 C   0  0
   -0.6729    2.1701    0.0000 C   0  0
   -3.2383    2.1691    0.0000 C   0  0
   -0.6716    1.4243    0.0000 N   0  0
   -0.0341    2.5379    0.0000 O   0  0
   -3.8774    2.5405    0.0000 O   0  0
   -3.2389    1.4233    0.0000 N   0  0
   -0.0274    1.0587    0.0000 C   0  0
   -0.0261    0.3212    0.0000 C   0  0
   -3.8787    1.0613    0.0000 C   0  0
   -3.8766    0.3247    0.0000 C   0  0
   -0.6608   -0.0465    0.0000 C   0  0
   -0.6597   -0.7834    0.0000 C   0  0
   -0.0222   -1.1517    0.0000 C   0  0
    0.6155   -0.7784    0.0000 C   0  0
    0.6118   -0.0425    0.0000 C   0  0
   -4.5138   -0.0422    0.0000 C   0  0
   -4.5162   -0.7781    0.0000 C   0  0
   -3.8748   -1.1410    0.0000 C   0  0
   -3.2383   -0.7675    0.0000 C   0  0
   -3.2428   -0.0326    0.0000 C   0  0
   -3.8690   -1.8780    0.0000 C   0  0
   -0.0200   -1.8879    0.0000 C   0  0
   -0.6587   -2.2554    0.0000 C   0  0
   -0.6569   -2.9910    0.0000 C   0  0
   -0.0177   -3.3581    0.0000 C   0  0
    0.6210   -2.9841    0.0000 C   0  0
    0.6160   -2.2497    0.0000 C   0  0
   -4.5030   -2.2502    0.0000 C   0  0
   -4.4975   -2.9865    0.0000 C   0  0
   -3.8559   -3.3507    0.0000 C   0  0
   -3.2185   -2.9732    0.0000 C   0  0
   -3.2271   -2.2382    0.0000 C   0  0
 20 21  2  0
 21 14  1  0
  7 10  2  0
 16 22  2  0
  2  3  1  0
 22 23  1  0
 12 15  1  0
 23 24  2  0
 15 16  1  0
 24 25  1  0
  8 11  2  0
 25 26  2  0
 26 16  1  0
  5  6  2  0
  8 12  1  0
  6  1  1  0
  9 13  1  0
 24 27  1  0
  1  2  2  0
 19 28  1  0
 13 14  1  0
 28 29  2  0
  4  7  1  0
 29 30  1  0
 14 17  2  0
 30 31  2  0
  3  4  2  0
 31 32  1  0
 17 18  1  0
 32 33  2  0
 33 28  1  0
  2  8  1  0
 27 34  2  0
 18 19  2  0
 34 35  1  0
  7  9  1  0
 35 36  2  0
 19 20  1  0
 36 37  1  0
  4  5  1  0
 37 38  2  0
 38 27  1  0
M  END
>  <ID_NEW>
CPDMM2339

>  <pIC50>
4.0

$$$$

  SciTegic12180812122D

 32 34  0  0  0  0            999 V2000
    2.8652   -0.5000    0.0000 N   0  0
    2.8640   -1.1148    0.0000 C   0  0
    3.3956   -1.4194    0.0000 C   0  0
    3.9245   -1.1143    0.0000 C   0  0
    3.9216   -0.4964    0.0000 N   0  0
    3.3938   -0.1997    0.0000 C   0  0
    4.4563   -1.4174    0.0000 C   0  0
    2.3408   -1.4184    0.0000 C   0  0
    4.4576   -2.0299    0.0000 O   0  0
    4.9784   -1.1163    0.0000 N   0  0
    1.8143   -1.1137    0.0000 N   0  0
    2.3402   -2.0309    0.0000 O   0  0
    1.2833   -1.4167    0.0000 C   0  0
    0.7500   -1.1083    0.0000 C   0  0
    0.2125   -1.4125    0.0000 C   0  0
   -0.3250   -1.1000    0.0000 C   0  0
   -0.8606   -1.4089    0.0000 C   0  0
   -1.3945   -1.0962    0.0000 C   0  0
   -1.9297   -1.4046    0.0000 C   0  0
   -1.9303   -2.0236    0.0000 C   0  0
   -1.3913   -2.3328    0.0000 C   0  0
   -0.8582   -2.0227    0.0000 C   0  0
    5.4958   -1.4125    0.0000 C   0  0
    6.0083   -1.1125    0.0000 C   0  0
    6.5208   -1.4083    0.0000 C   0  0
    7.0292   -1.1083    0.0000 C   0  0
    7.5375   -1.4000    0.0000 C   0  0
    7.5371   -1.9868    0.0000 C   0  0
    8.0448   -2.2784    0.0000 C   0  0
    8.5523   -1.9840    0.0000 C   0  0
    8.5488   -1.3949    0.0000 C   0  0
    8.0407   -1.1060    0.0000 C   0  0
 15 16  1  0
  4  5  1  0
 17 16  1  0
  7 10  1  0
 17 18  2  0
  2  3  1  0
 18 19  1  0
  8 11  1  0
 19 20  2  0
  5  6  2  0
 20 21  1  0
  8 12  2  0
 21 22  2  0
 22 17  1  0
  6  1  1  0
 10 23  1  0
  1  2  2  0
 23 24  1  0
  4  7  1  0
 24 25  1  0
 25 26  1  0
 11 13  1  0
 26 27  1  0
  3  4  2  0
 27 28  2  0
 13 14  1  0
 28 29  1  0
  2  8  1  0
 29 30  2  0
 14 15  1  0
 30 31  1  0
  7  9  2  0
 31 32  2  0
 32 27  1  0
M  END
>  <ID_NEW>
CPDMM2340

>  <pIC50>
4.0

$$$$

  SciTegic12180812122D

 30 32  0  0  0  0            999 V2000
   -2.3847    1.8917    0.0000 N   0  0
   -2.3859    1.3935    0.0000 C   0  0
   -1.9545    1.1432    0.0000 C   0  0
   -1.5213    1.3940    0.0000 C   0  0
   -1.5242    1.8953    0.0000 N   0  0
   -1.9563    2.1420    0.0000 C   0  0
   -2.8174    1.1441    0.0000 C   0  0
   -3.2523    1.3947    0.0000 N   0  0
   -2.8180    0.6441    0.0000 O   0  0
   -1.0895    1.1451    0.0000 C   0  0
   -1.0882    0.6451    0.0000 O   0  0
   -0.6549    1.3963    0.0000 N   0  0
   -3.6838    1.1452    0.0000 C   0  0
   -4.1147    1.3958    0.0000 C   0  0
   -0.2273    1.1474    0.0000 C   0  0
    0.2073    1.3985    0.0000 C   0  0
   -4.1092    1.8926    0.0000 C   0  0
   -4.5433    2.1431    0.0000 C   0  0
   -4.9758    1.8936    0.0000 C   0  0
   -4.9738    1.3935    0.0000 C   0  0
   -4.5432    1.1468    0.0000 C   0  0
    0.6337    1.1483    0.0000 C   0  0
    1.0679    1.3987    0.0000 C   0  0
    1.0670    1.8954    0.0000 C   0  0
    0.6302    2.1441    0.0000 C   0  0
    0.2031    1.8913    0.0000 C   0  0
    0.6318    0.6539    0.0000 O   0  0
    0.2027    0.4083    0.0000 C   0  0
   -4.5417    0.6505    0.0000 O   0  0
   -4.9707    0.4011    0.0000 C   0  0
  7  8  1  0
 14 17  2  0
 17 18  1  0
  7  9  2  0
 18 19  2  0
  4  5  1  0
 19 20  1  0
  4 10  1  0
 20 21  2  0
 21 14  1  0
  2  3  1  0
 16 22  2  0
 10 11  2  0
 22 23  1  0
  5  6  2  0
 23 24  2  0
 10 12  1  0
 24 25  1  0
  6  1  1  0
 25 26  2  0
 26 16  1  0
  8 13  1  0
  1  2  2  0
 13 14  1  0
  2  7  1  0
 22 27  1  0
 12 15  1  0
 27 28  1  0
  3  4  2  0
 21 29  1  0
 15 16  1  0
 29 30  1  0
M  END
>  <ID_NEW>
CPDMM2341

>  <pIC50>
4.0

$$$$

  SciTegic12180812122D

 28 30  0  0  0  0            999 V2000
   -2.3847    1.8917    0.0000 N   0  0
   -2.3859    1.3935    0.0000 C   0  0
   -1.9545    1.1432    0.0000 C   0  0
   -1.5213    1.3940    0.0000 C   0  0
   -1.5242    1.8953    0.0000 N   0  0
   -1.9563    2.1420    0.0000 C   0  0
   -2.8174    1.1441    0.0000 C   0  0
   -3.2523    1.3947    0.0000 N   0  0
   -2.8180    0.6441    0.0000 O   0  0
   -1.0895    1.1451    0.0000 C   0  0
   -1.0882    0.6451    0.0000 O   0  0
   -0.6549    1.3963    0.0000 N   0  0
   -3.6838    1.1452    0.0000 C   0  0
   -4.1147    1.3958    0.0000 C   0  0
   -0.2273    1.1474    0.0000 C   0  0
    0.2073    1.3985    0.0000 C   0  0
   -4.1092    1.8926    0.0000 C   0  0
   -4.5433    2.1431    0.0000 C   0  0
   -4.9758    1.8936    0.0000 C   0  0
   -4.9738    1.3935    0.0000 C   0  0
   -4.5432    1.1468    0.0000 C   0  0
    0.6337    1.1483    0.0000 C   0  0
    1.0679    1.3987    0.0000 C   0  0
    1.0670    1.8954    0.0000 C   0  0
    0.6302    2.1441    0.0000 C   0  0
    0.2031    1.8913    0.0000 C   0  0
    0.6318    0.6539    0.0000 Cl  0  0
   -4.5417    0.6505    0.0000 Cl  0  0
  3  4  2  0
 15 16  1  0
  7  8  1  0
 14 17  2  0
 17 18  1  0
  7  9  2  0
 18 19  2  0
  4  5  1  0
 19 20  1  0
  4 10  1  0
 20 21  2  0
 21 14  1  0
  2  3  1  0
 16 22  2  0
 10 11  2  0
 22 23  1  0
  5  6  2  0
 23 24  2  0
 10 12  1  0
 24 25  1  0
  6  1  1  0
 25 26  2  0
 26 16  1  0
  8 13  1  0
  1  2  2  0
 13 14  1  0
  2  7  1  0
 22 27  1  0
 12 15  1  0
 21 28  1  0
M  END
>  <ID_NEW>
CPDMM2342

>  <pIC50>
4.0

$$$$

  SciTegic12180812122D

 28 30  0  0  0  0            999 V2000
   -2.3264    2.0417    0.0000 N   0  0
   -2.3276    1.4060    0.0000 C   0  0
   -1.7795    1.0849    0.0000 C   0  0
   -1.2255    1.4065    0.0000 C   0  0
   -1.2284    2.0453    0.0000 N   0  0
   -1.7813    2.3587    0.0000 C   0  0
   -2.8757    1.0858    0.0000 C   0  0
   -3.4273    1.4072    0.0000 N   0  0
   -2.8763    0.4483    0.0000 O   0  0
   -0.6770    1.0868    0.0000 C   0  0
   -0.6757    0.4493    0.0000 O   0  0
   -0.1257    1.4088    0.0000 N   0  0
   -3.9755    1.0869    0.0000 C   0  0
   -4.5230    1.4083    0.0000 C   0  0
    0.4144    1.0932    0.0000 C   0  0
    0.9698    1.4110    0.0000 C   0  0
   -4.5134    2.0426    0.0000 C   0  0
   -5.0683    2.3598    0.0000 C   0  0
   -5.6175    2.0436    0.0000 C   0  0
   -5.6155    1.4060    0.0000 C   0  0
   -5.0682    1.0926    0.0000 C   0  0
    1.5129    1.0941    0.0000 C   0  0
    2.0637    1.4112    0.0000 C   0  0
    2.0628    2.0454    0.0000 C   0  0
    1.5052    2.3608    0.0000 C   0  0
    0.9614    2.0371    0.0000 C   0  0
   -5.0667    0.4620    0.0000 C   0  0
    1.5110    0.4654    0.0000 C   0  0
 15 16  1  0
  7  8  1  0
 14 17  2  0
 17 18  1  0
  7  9  2  0
 18 19  2  0
  4  5  1  0
 19 20  1  0
  4 10  1  0
 20 21  2  0
 21 14  1  0
  2  3  1  0
 16 22  2  0
 10 11  2  0
 22 23  1  0
  5  6  2  0
 23 24  2  0
 10 12  1  0
 24 25  1  0
  6  1  1  0
 25 26  2  0
 26 16  1  0
  8 13  1  0
  1  2  2  0
 13 14  1  0
  2  7  1  0
 12 15  1  0
 21 27  1  0
  3  4  2  0
 22 28  1  0
M  END
>  <ID_NEW>
CPDMM2343

>  <pIC50>
4.0

$$$$

  SciTegic12180812122D

 28 30  0  0  0  0            999 V2000
   -2.3264    2.0459    0.0000 N   0  0
   -2.3276    1.4060    0.0000 C   0  0
   -1.7795    1.0849    0.0000 C   0  0
   -1.2255    1.4065    0.0000 C   0  0
   -1.2284    2.0495    0.0000 N   0  0
   -1.7813    2.3629    0.0000 C   0  0
   -2.8757    1.0858    0.0000 C   0  0
   -3.4273    1.4072    0.0000 N   0  0
   -2.8763    0.4483    0.0000 O   0  0
   -0.6770    1.0868    0.0000 C   0  0
   -0.6757    0.4493    0.0000 O   0  0
   -0.1257    1.4130    0.0000 N   0  0
   -3.9755    1.0869    0.0000 C   0  0
   -4.5230    1.4083    0.0000 C   0  0
    0.4144    1.0932    0.0000 C   0  0
    0.9698    1.4152    0.0000 C   0  0
   -4.5134    2.0468    0.0000 C   0  0
   -5.0683    2.3640    0.0000 C   0  0
   -5.6175    2.0478    0.0000 C   0  0
   -5.6155    1.4060    0.0000 C   0  0
   -5.0682    1.0926    0.0000 C   0  0
    1.5129    1.0941    0.0000 C   0  0
    2.0637    1.4154    0.0000 C   0  0
    2.0628    2.0496    0.0000 C   0  0
    1.5052    2.3650    0.0000 C   0  0
    0.9614    2.0413    0.0000 C   0  0
   -5.0667    0.4620    0.0000 F   0  0
    1.5110    0.4654    0.0000 F   0  0
 15 16  1  0
  7  8  1  0
 14 17  2  0
 17 18  1  0
  7  9  2  0
 18 19  2  0
  4  5  1  0
 19 20  1  0
  4 10  1  0
 20 21  2  0
 21 14  1  0
  2  3  1  0
 16 22  2  0
 10 11  2  0
 22 23  1  0
  5  6  2  0
 23 24  2  0
 10 12  1  0
 24 25  1  0
  6  1  1  0
 25 26  2  0
 26 16  1  0
  8 13  1  0
  1  2  2  0
 13 14  1  0
  2  7  1  0
 12 15  1  0
 21 27  1  0
  3  4  2  0
 22 28  1  0
M  END
>  <ID_NEW>
CPDMM2344

>  <pIC50>
4.0

$$$$

  SciTegic12180812122D

 26 28  0  0  0  0            999 V2000
   -2.4183    1.9502    0.0000 C   0  0
   -2.4194    1.3811    0.0000 C   0  0
   -1.9379    1.1016    0.0000 C   0  0
   -1.4548    1.3816    0.0000 C   0  0
   -1.4576    1.9538    0.0000 C   0  0
   -1.9397    2.2254    0.0000 N   0  0
   -0.9729    1.1035    0.0000 C   0  0
   -0.9717    0.5409    0.0000 O   0  0
   -0.4883    1.4047    0.0000 N   0  0
   -2.9090    1.1025    0.0000 C   0  0
   -3.3817    1.3823    0.0000 N   0  0
   -2.9097    0.5399    0.0000 O   0  0
   -3.8668    1.1166    0.0000 C   0  0
   -0.0084    1.1209    0.0000 C   0  0
    0.4708    1.4000    0.0000 C   0  0
   -4.3500    1.4043    0.0000 C   0  0
    0.9559    1.1227    0.0000 C   0  0
    0.9441    2.2277    0.0000 C   0  0
    0.4673    1.9516    0.0000 C   0  0
   -4.3611    1.9584    0.0000 C   0  0
   -4.8481    2.2376    0.0000 C   0  0
   -4.8392    1.1137    0.0000 C   0  0
   -5.3306    1.3821    0.0000 C   0  0
   -5.3334    1.9600    0.0000 C   0  0
    1.4329    1.9608    0.0000 C   0  0
    1.4336    1.4069    0.0000 C   0  0
 25 18  1  0
  4  5  1  0
 18 19  2  0
 19 15  1  0
  2 10  1  0
 16 20  2  0
  2  3  1  0
 20 21  1  0
 10 11  1  0
 21 24  2  0
  5  6  2  0
 10 12  2  0
 23 22  2  0
 22 16  1  0
 23 24  1  0
  6  1  1  0
  9 14  1  0
  1  2  2  0
 14 15  1  0
 25 26  2  0
  4  7  1  0
 13 16  1  0
  3  4  2  0
 15 17  2  0
  7  8  2  0
 17 26  1  0
 11 13  1  0
  7  9  1  0
M  END
>  <ID_NEW>
CPDMM2345

>  <pIC50>
4.0

$$$$

  SciTegic12180812122D

 28 30  0  0  0  0            999 V2000
   -2.4808    2.0377    0.0000 C   0  0
   -2.4819    1.3894    0.0000 C   0  0
   -1.9379    1.0724    0.0000 C   0  0
   -1.3923    1.3899    0.0000 C   0  0
   -1.3951    2.0413    0.0000 C   0  0
   -1.9397    2.3504    0.0000 N   0  0
   -0.8437    1.0743    0.0000 C   0  0
   -0.8425    0.4367    0.0000 O   0  0
   -0.2925    1.4172    0.0000 N   0  0
   -3.0382    1.0733    0.0000 C   0  0
   -3.5775    1.3906    0.0000 N   0  0
   -3.0389    0.4357    0.0000 O   0  0
   -4.1251    1.0874    0.0000 C   0  0
    0.2499    1.0917    0.0000 C   0  0
    0.7958    1.4125    0.0000 C   0  0
   -4.6708    1.4168    0.0000 C   0  0
    1.3476    1.0935    0.0000 C   0  0
    1.3316    2.3527    0.0000 C   0  0
    0.7923    2.0391    0.0000 C   0  0
   -4.6861    2.0459    0.0000 C   0  0
   -5.2398    2.3626    0.0000 C   0  0
   -5.2309    1.0845    0.0000 C   0  0
   -5.7848    1.3904    0.0000 C   0  0
   -5.7917    2.0475    0.0000 C   0  0
    1.8829    2.0483    0.0000 C   0  0
    1.8878    1.4194    0.0000 C   0  0
    2.4366    1.1123    0.0000 C   0  0
   -6.3280    1.0660    0.0000 C   0  0
  4  5  1  0
 18 19  2  0
 19 15  1  0
  2 10  1  0
 16 20  2  0
  2  3  1  0
 20 21  1  0
 10 11  1  0
 21 24  2  0
  5  6  2  0
 10 12  2  0
 23 22  2  0
 22 16  1  0
 23 24  1  0
  6  1  1  0
  9 14  1  0
  1  2  2  0
 14 15  1  0
 25 26  2  0
  4  7  1  0
 13 16  1  0
  3  4  2  0
 15 17  2  0
  7  8  2  0
 17 26  1  0
 11 13  1  0
  7  9  1  0
 26 27  1  0
 25 18  1  0
 23 28  1  0
M  END
>  <ID_NEW>
CPDMM2346

>  <pIC50>
4.0

$$$$

  SciTegic12180812122D

 28 30  0  0  0  0            999 V2000
    0.6734    2.1335    0.0000 C   0  0
    0.6723    1.4853    0.0000 C   0  0
    1.2163    1.1683    0.0000 C   0  0
    1.7619    1.4858    0.0000 C   0  0
    1.7591    2.1371    0.0000 C   0  0
    1.2145    2.4462    0.0000 N   0  0
    2.3104    1.1702    0.0000 C   0  0
    2.3116    0.5326    0.0000 O   0  0
    2.8617    1.5130    0.0000 N   0  0
    0.1160    1.1692    0.0000 C   0  0
   -0.4234    1.4865    0.0000 N   0  0
    0.1153    0.5316    0.0000 O   0  0
   -0.9710    1.1833    0.0000 C   0  0
    3.4041    1.1876    0.0000 C   0  0
    3.9500    1.5083    0.0000 C   0  0
   -1.5167    1.5126    0.0000 C   0  0
    4.5017    1.1894    0.0000 C   0  0
    4.4858    2.4485    0.0000 C   0  0
    3.9465    2.1349    0.0000 C   0  0
   -1.5319    2.1417    0.0000 C   0  0
   -2.0856    2.4584    0.0000 C   0  0
   -2.0767    1.1804    0.0000 C   0  0
   -2.6306    1.4863    0.0000 C   0  0
   -2.6376    2.1433    0.0000 C   0  0
    5.0371    2.1441    0.0000 C   0  0
    5.0419    1.5152    0.0000 C   0  0
    5.5908    1.2081    0.0000 Cl  0  0
   -3.1738    1.1618    0.0000 Cl  0  0
  4  5  1  0
 18 19  2  0
 19 15  1  0
  2 10  1  0
 16 20  2  0
  2  3  1  0
 20 21  1  0
 10 11  1  0
 21 24  2  0
  5  6  2  0
 10 12  2  0
 23 22  2  0
 22 16  1  0
 23 24  1  0
  6  1  1  0
  9 14  1  0
  1  2  2  0
 14 15  1  0
 25 26  2  0
  4  7  1  0
 13 16  1  0
  3  4  2  0
 15 17  2  0
  7  8  2  0
 17 26  1  0
 11 13  1  0
  7  9  1  0
 26 27  1  0
 25 18  1  0
 23 28  1  0
M  END
>  <ID_NEW>
CPDMM2347

>  <pIC50>
4.0

$$$$

  SciTegic12180812122D

 28 30  0  0  0  0            999 V2000
   -2.3683    1.9377    0.0000 C   0  0
   -2.3694    1.3853    0.0000 C   0  0
   -1.9004    1.1141    0.0000 C   0  0
   -1.4339    1.3858    0.0000 C   0  0
   -1.4367    1.9413    0.0000 C   0  0
   -1.9022    2.2087    0.0000 N   0  0
   -0.9646    1.1160    0.0000 C   0  0
   -0.9634    0.5701    0.0000 O   0  0
   -0.4925    1.4088    0.0000 N   0  0
   -2.8465    1.1150    0.0000 C   0  0
   -3.3109    1.3865    0.0000 N   0  0
   -2.8472    0.5691    0.0000 O   0  0
   -3.7793    1.1250    0.0000 C   0  0
   -0.0251    1.1293    0.0000 C   0  0
    0.4417    1.4041    0.0000 C   0  0
   -4.2459    1.4084    0.0000 C   0  0
    0.9142    1.1311    0.0000 C   0  0
    0.9025    2.2110    0.0000 C   0  0
    0.4382    1.9391    0.0000 C   0  0
   -4.2611    1.9459    0.0000 C   0  0
   -4.7356    2.2167    0.0000 C   0  0
   -4.7267    1.1221    0.0000 C   0  0
   -5.2014    1.3863    0.0000 C   0  0
   -5.2084    1.9475    0.0000 C   0  0
    1.3746    1.9483    0.0000 C   0  0
    1.3794    1.4110    0.0000 C   0  0
   -5.6806    2.2180    0.0000 F   0  0
    1.8365    2.2226    0.0000 F   0  0
 18 19  2  0
 19 15  1  0
  2 10  1  0
 16 20  2  0
  2  3  1  0
 20 21  1  0
 10 11  1  0
 21 24  2  0
  5  6  2  0
 10 12  2  0
 23 22  2  0
 22 16  1  0
 23 24  1  0
  6  1  1  0
  9 14  1  0
  1  2  2  0
 14 15  1  0
 25 26  2  0
  4  7  1  0
 13 16  1  0
  3  4  2  0
 15 17  2  0
  7  8  2  0
 17 26  1  0
 11 13  1  0
  7  9  1  0
 25 18  1  0
 24 27  1  0
  4  5  1  0
 25 28  1  0
M  END
>  <ID_NEW>
CPDMM2348

>  <pIC50>
4.0

$$$$

  SciTegic12180812122D

 30 32  0  0  0  0            999 V2000
    0.4942    1.8210    0.0000 C   0  0
    0.4931    1.2520    0.0000 C   0  0
    0.9746    0.9766    0.0000 C   0  0
    1.4536    1.2525    0.0000 C   0  0
    1.4508    1.8246    0.0000 C   0  0
    0.9728    2.1004    0.0000 N   0  0
    1.9354    0.9785    0.0000 C   0  0
    1.9366    0.4159    0.0000 O   0  0
    2.4242    1.2796    0.0000 N   0  0
    0.0035    0.9775    0.0000 C   0  0
   -0.4734    1.2532    0.0000 N   0  0
    0.0028    0.4149    0.0000 O   0  0
   -0.9585    0.9875    0.0000 C   0  0
    2.9041    0.9876    0.0000 C   0  0
    3.3834    1.2708    0.0000 C   0  0
   -1.4376    1.2792    0.0000 C   0  0
    3.8725    0.9894    0.0000 C   0  0
    3.8567    2.1027    0.0000 C   0  0
    3.3799    1.8224    0.0000 C   0  0
   -1.4528    1.8292    0.0000 C   0  0
   -1.9398    2.1084    0.0000 C   0  0
   -1.9309    0.9846    0.0000 C   0  0
   -2.4181    1.2530    0.0000 C   0  0
   -2.4251    1.8308    0.0000 C   0  0
    4.3413    1.8316    0.0000 C   0  0
    4.3502    1.2818    0.0000 C   0  0
   -2.9139    2.1097    0.0000 O   0  0
    4.8198    2.1143    0.0000 O   0  0
    5.3039    1.8411    0.0000 C   0  0
   -3.3998    1.8257    0.0000 C   0  0
 19 15  1  0
  2 10  1  0
 16 20  2  0
  2  3  1  0
 20 21  1  0
 10 11  1  0
 21 24  2  0
  5  6  2  0
 10 12  2  0
 23 22  2  0
 22 16  1  0
 23 24  1  0
  6  1  1  0
  9 14  1  0
  1  2  2  0
 14 15  1  0
 25 26  2  0
  4  7  1  0
 13 16  1  0
  3  4  2  0
 15 17  2  0
  7  8  2  0
 17 26  1  0
 11 13  1  0
  7  9  1  0
 25 18  1  0
 24 27  1  0
  4  5  1  0
 25 28  1  0
 28 29  1  0
 18 19  2  0
 27 30  1  0
M  END
>  <ID_NEW>
CPDMM2349

>  <pIC50>
4.0

$$$$

  SciTegic12180812142D

 28 30  0  0  0  0            999 V2000
   -0.8473    2.0625    0.0000 C   0  0
   -0.8484    1.4268    0.0000 C   0  0
   -0.3002    1.1056    0.0000 C   0  0
    0.2536    1.4272    0.0000 C   0  0
    0.2508    2.0704    0.0000 C   0  0
   -0.3020    2.3878    0.0000 C   0  0
   -1.4007    1.1065    0.0000 C   0  0
   -1.9482    1.4279    0.0000 N   0  0
   -1.4014    0.4732    0.0000 O   0  0
    0.8022    1.1076    0.0000 C   0  0
    0.8034    0.4743    0.0000 O   0  0
    1.3534    1.4338    0.0000 N   0  0
    1.9042    1.1208    0.0000 C   0  0
    2.4500    1.4417    0.0000 C   0  0
    3.0004    1.1271    0.0000 C   0  0
    3.5459    1.4474    0.0000 C   0  0
    3.5413    2.0812    0.0000 C   0  0
    2.9867    2.3934    0.0000 C   0  0
    2.4435    2.0712    0.0000 C   0  0
    4.0873    2.4031    0.0000 F   0  0
   -2.5000    1.1125    0.0000 C   0  0
   -3.0542    1.4333    0.0000 C   0  0
   -3.0512    2.0745    0.0000 C   0  0
   -3.6048    2.3953    0.0000 C   0  0
   -4.1605    2.0757    0.0000 C   0  0
   -4.1592    1.4321    0.0000 C   0  0
   -3.6052    1.1142    0.0000 C   0  0
   -4.7156    2.3962    0.0000 F   0  0
 13 14  1  0
  7  8  1  0
 14 15  2  0
  7  9  2  0
 15 16  1  0
  4  5  1  0
 16 17  2  0
  4 10  1  0
 17 18  1  0
  2  3  1  0
 18 19  2  0
 19 14  1  0
 10 11  2  0
 17 20  1  0
  5  6  2  0
  8 21  1  0
 10 12  1  0
 21 22  1  0
  6  1  1  0
 22 23  2  0
  1  2  2  0
 23 24  1  0
  2  7  1  0
 24 25  2  0
 25 26  1  0
 12 13  1  0
 26 27  2  0
 27 22  1  0
  3  4  2  0
 25 28  1  0
M  END
>  <ID_NEW>
CPDMM2350

>  <pIC50>
4.0

$$$$

  SciTegic12180812142D

 30 32  0  0  0  0            999 V2000
    0.3944    1.1667    0.0000 N   0  0
    0.3933    0.6144    0.0000 C   0  0
    0.8789    0.3307    0.0000 C   0  0
    1.3619    0.6148    0.0000 C   0  0
    1.3591    1.1788    0.0000 C   0  0
    0.8771    1.4503    0.0000 C   0  0
   -0.0882    0.3316    0.0000 C   0  0
   -0.5690    0.6155    0.0000 N   0  0
   -0.0889   -0.2226    0.0000 O   0  0
    1.8397    0.3327    0.0000 C   0  0
    1.8409   -0.2215    0.0000 O   0  0
    2.3243    0.6171    0.0000 N   0  0
    2.8042    0.3417    0.0000 C   0  0
    3.2833    0.6208    0.0000 C   0  0
   -1.0584    0.3333    0.0000 C   0  0
   -1.5458    0.6166    0.0000 C   0  0
   -1.5456    1.1811    0.0000 C   0  0
   -2.0282    1.4643    0.0000 C   0  0
   -2.5185    1.1842    0.0000 C   0  0
   -2.5179    0.6168    0.0000 C   0  0
   -2.0306    0.3370    0.0000 C   0  0
    3.7687    0.3432    0.0000 C   0  0
    4.2474    0.6217    0.0000 C   0  0
    4.2454    1.1767    0.0000 C   0  0
    3.7594    1.4515    0.0000 C   0  0
    3.2832    1.1751    0.0000 C   0  0
   -3.0070    1.4674    0.0000 O   0  0
   -3.4965    1.1859    0.0000 C   0  0
    4.7243    1.4572    0.0000 O   0  0
    5.2067    1.1828    0.0000 C   0  0
  3  4  2  0
 15 16  1  0
  7  8  1  0
 16 17  2  0
  7  9  2  0
 17 18  1  0
  4  5  1  0
 18 19  2  0
  4 10  1  0
 19 20  1  0
  2  3  1  0
 20 21  2  0
 21 16  1  0
 10 11  2  0
 14 22  2  0
  5  6  2  0
 22 23  1  0
 10 12  1  0
 23 24  2  0
  6  1  1  0
 24 25  1  0
 25 26  2  0
 26 14  1  0
 12 13  1  0
  1  2  2  0
 19 27  1  0
 13 14  1  0
 27 28  1  0
  2  7  1  0
 24 29  1  0
  8 15  1  0
 29 30  1  0
M  END
>  <ID_NEW>
CPDMM2351

>  <pIC50>
4.0

$$$$

  SciTegic12180812142D

 28 30  0  0  0  0            999 V2000
   -2.3639    1.8709    0.0000 N   0  0
   -2.3650    1.3769    0.0000 C   0  0
   -1.9294    1.1265    0.0000 C   0  0
   -1.5006    1.3773    0.0000 C   0  0
   -1.5034    1.8830    0.0000 C   0  0
   -1.9312    2.1253    0.0000 C   0  0
   -2.7924    1.1274    0.0000 C   0  0
   -3.2232    1.3780    0.0000 N   0  0
   -2.7931    0.6316    0.0000 O   0  0
   -1.0728    1.1285    0.0000 C   0  0
   -1.0716    0.6327    0.0000 O   0  0
   -0.6424    1.3796    0.0000 N   0  0
   -0.2125    1.1334    0.0000 C   0  0
    0.2166    1.3833    0.0000 C   0  0
   -3.6584    1.1291    0.0000 C   0  0
   -4.0958    1.3791    0.0000 C   0  0
   -4.0956    1.8853    0.0000 C   0  0
   -4.5240    2.1393    0.0000 C   0  0
   -4.9643    1.8884    0.0000 C   0  0
   -4.9637    1.3793    0.0000 C   0  0
   -4.5264    1.1287    0.0000 C   0  0
    0.6479    1.1349    0.0000 C   0  0
    1.0766    1.3842    0.0000 C   0  0
    1.0746    1.8809    0.0000 C   0  0
    0.6427    2.1265    0.0000 C   0  0
    0.2165    1.8793    0.0000 C   0  0
   -5.3987    2.1424    0.0000 F   0  0
    1.5035    2.1322    0.0000 F   0  0
  3  4  2  0
 15 16  1  0
  7  8  1  0
 16 17  2  0
  7  9  2  0
 17 18  1  0
  4  5  1  0
 18 19  2  0
  4 10  1  0
 19 20  1  0
  2  3  1  0
 20 21  2  0
 21 16  1  0
 10 11  2  0
 14 22  2  0
  5  6  2  0
 22 23  1  0
 10 12  1  0
 23 24  2  0
  6  1  1  0
 24 25  1  0
 25 26  2  0
 26 14  1  0
 12 13  1  0
  1  2  2  0
 19 27  1  0
 13 14  1  0
  2  7  1  0
 24 28  1  0
  8 15  1  0
M  END
>  <ID_NEW>
CPDMM2352

>  <pIC50>
4.0

$$$$

  SciTegic12180812142D

 28 30  0  0  0  0            999 V2000
    2.5611    2.4209    0.0000 N   0  0
    2.5600    1.8727    0.0000 C   0  0
    3.0456    1.5931    0.0000 C   0  0
    3.5286    1.8731    0.0000 C   0  0
    3.5258    2.4372    0.0000 C   0  0
    3.0438    2.7087    0.0000 C   0  0
    2.0826    1.5940    0.0000 C   0  0
    1.5977    1.8738    0.0000 N   0  0
    2.0819    1.0358    0.0000 O   0  0
    4.0064    1.5951    0.0000 C   0  0
    4.0076    1.0369    0.0000 O   0  0
    4.4910    1.8713    0.0000 N   0  0
    4.9709    1.5959    0.0000 C   0  0
    5.4500    1.8750    0.0000 C   0  0
    1.1166    1.5957    0.0000 C   0  0
    0.6209    1.8749    0.0000 C   0  0
    0.6211    2.4395    0.0000 C   0  0
    0.1385    2.7227    0.0000 C   0  0
   -0.3477    2.4426    0.0000 C   0  0
   -0.3471    1.8710    0.0000 C   0  0
    0.1361    1.5953    0.0000 C   0  0
    5.9354    1.5974    0.0000 C   0  0
    6.4183    1.8801    0.0000 C   0  0
    6.4121    2.4351    0.0000 C   0  0
    5.9302    2.7099    0.0000 C   0  0
    5.4499    2.4335    0.0000 C   0  0
    6.9053    1.6045    0.0000 Cl  0  0
   -0.8412    1.5836    0.0000 Cl  0  0
 19 20  1  0
  2  3  1  0
 20 21  2  0
 21 16  1  0
 10 11  2  0
 14 22  2  0
  5  6  2  0
 22 23  1  0
 10 12  1  0
 23 24  2  0
  6  1  1  0
 24 25  1  0
 25 26  2  0
 26 14  1  0
 12 13  1  0
  1  2  2  0
 13 14  1  0
  2  7  1  0
  8 15  1  0
  3  4  2  0
 15 16  1  0
  7  8  1  0
 16 17  2  0
  7  9  2  0
 17 18  1  0
  4  5  1  0
 18 19  2  0
 23 27  1  0
 20 28  1  0
  4 10  1  0
M  END
>  <ID_NEW>
CPDMM2353

>  <pIC50>
4.0

$$$$

  SciTegic12180812142D

 26 28  0  0  0  0            999 V2000
   -2.4264    1.9418    0.0000 N   0  0
   -2.4275    1.3935    0.0000 C   0  0
   -1.9419    1.1181    0.0000 C   0  0
   -1.4589    1.3939    0.0000 C   0  0
   -1.4617    1.9581    0.0000 C   0  0
   -1.9437    2.2295    0.0000 C   0  0
   -2.9049    1.1190    0.0000 C   0  0
   -3.3856    1.3946    0.0000 N   0  0
   -2.9056    0.5567    0.0000 O   0  0
   -0.9811    1.1201    0.0000 C   0  0
   -0.9799    0.5578    0.0000 O   0  0
   -0.4965    1.3921    0.0000 N   0  0
   -0.0208    1.1209    0.0000 C   0  0
    0.4583    1.3958    0.0000 C   0  0
   -3.8667    1.1207    0.0000 C   0  0
   -4.3624    1.3957    0.0000 C   0  0
   -4.3622    1.9604    0.0000 C   0  0
   -4.8448    2.2435    0.0000 C   0  0
   -5.3269    1.9635    0.0000 C   0  0
   -5.3263    1.3918    0.0000 C   0  0
   -4.8430    1.1203    0.0000 C   0  0
    0.9395    1.1224    0.0000 C   0  0
    1.4224    1.4010    0.0000 C   0  0
    1.4162    1.9560    0.0000 C   0  0
    0.9385    2.2307    0.0000 C   0  0
    0.4582    1.9544    0.0000 C   0  0
 19 20  1  0
  2  3  1  0
 20 21  2  0
 21 16  1  0
 10 11  2  0
 14 22  2  0
  5  6  2  0
 22 23  1  0
 10 12  1  0
 23 24  2  0
  6  1  1  0
 24 25  1  0
 25 26  2  0
 26 14  1  0
 12 13  1  0
  1  2  2  0
 13 14  1  0
  2  7  1  0
  8 15  1  0
  3  4  2  0
 15 16  1  0
  7  8  1  0
 16 17  2  0
  7  9  2  0
 17 18  1  0
  4  5  1  0
 18 19  2  0
  4 10  1  0
M  END
>  <ID_NEW>
CPDMM2354

>  <pIC50>
4.0

$$$$

  SciTegic12180812142D

 28 30  0  0  0  0            999 V2000
   -2.3681    1.9251    0.0000 N   0  0
   -2.3692    1.3935    0.0000 C   0  0
   -1.8961    1.1223    0.0000 C   0  0
   -1.4256    1.3939    0.0000 C   0  0
   -1.4284    1.9414    0.0000 C   0  0
   -1.8979    2.2045    0.0000 C   0  0
   -2.8341    1.1232    0.0000 C   0  0
   -3.3023    1.3946    0.0000 N   0  0
   -2.8348    0.5775    0.0000 O   0  0
   -0.9644    1.1243    0.0000 C   0  0
   -0.9632    0.5786    0.0000 O   0  0
   -0.4923    1.3921    0.0000 N   0  0
   -0.0291    1.1251    0.0000 C   0  0
    0.4375    1.3958    0.0000 C   0  0
   -3.7709    1.1249    0.0000 C   0  0
   -4.2499    1.3957    0.0000 C   0  0
   -4.2497    1.9437    0.0000 C   0  0
   -4.7198    2.2185    0.0000 C   0  0
   -5.1894    1.9468    0.0000 C   0  0
   -5.1888    1.3918    0.0000 C   0  0
   -4.7222    1.1245    0.0000 C   0  0
    0.9062    1.1266    0.0000 C   0  0
    1.3766    1.3968    0.0000 C   0  0
    1.3704    1.9393    0.0000 C   0  0
    0.9052    2.2057    0.0000 C   0  0
    0.4374    1.9377    0.0000 C   0  0
    1.8511    1.1337    0.0000 C   0  0
   -5.6704    1.1128    0.0000 C   0  0
 19 20  1  0
  2  3  1  0
 20 21  2  0
 21 16  1  0
 10 11  2  0
 14 22  2  0
  5  6  2  0
 22 23  1  0
 10 12  1  0
 23 24  2  0
  6  1  1  0
 24 25  1  0
 25 26  2  0
 26 14  1  0
 12 13  1  0
  1  2  2  0
 13 14  1  0
  2  7  1  0
  8 15  1  0
  3  4  2  0
 15 16  1  0
  7  8  1  0
 16 17  2  0
  7  9  2  0
 17 18  1  0
  4  5  1  0
 18 19  2  0
 23 27  1  0
 20 28  1  0
  4 10  1  0
M  END
>  <ID_NEW>
CPDMM2355

>  <pIC50>
4.0

$$$$

  SciTegic12180812222D

 32 36  0  0  0  0            999 V2000
   -2.1182    1.9085    0.0000 N   0  0
   -2.1193    1.3894    0.0000 C   0  0
   -1.6753    1.1349    0.0000 C   0  0
   -1.2339    1.3899    0.0000 C   0  0
   -1.2367    1.9121    0.0000 N   0  0
   -1.6771    2.1629    0.0000 C   0  0
   -0.7937    1.1368    0.0000 C   0  0
   -0.7925    0.6200    0.0000 O   0  0
   -0.3549    1.4047    0.0000 N   0  0
   -2.5631    1.1358    0.0000 C   0  0
   -2.9983    1.3906    0.0000 N   0  0
   -2.5638    0.6190    0.0000 O   0  0
   -3.4417    1.1458    0.0000 C   0  0
    0.0833    1.1459    0.0000 C   0  0
    0.5208    1.4042    0.0000 C   0  0
   -3.8833    1.4043    0.0000 C   0  0
    0.9643    1.1477    0.0000 C   0  0
    0.9566    2.1652    0.0000 C   0  0
    0.5173    1.9099    0.0000 C   0  0
   -3.8903    1.9167    0.0000 C   0  0
   -4.3356    2.1709    0.0000 C   0  0
   -4.3267    1.1429    0.0000 C   0  0
   -4.7764    1.3904    0.0000 C   0  0
   -4.7792    1.9141    0.0000 C   0  0
   -5.2762    2.0701    0.0000 O   0  0
   -5.5802    1.6478    0.0000 C   0  0
   -5.2716    1.2248    0.0000 O   0  0
    1.3996    1.9149    0.0000 C   0  0
    1.4003    1.4069    0.0000 C   0  0
    1.8819    1.2507    0.0000 O   0  0
    2.1760    1.6598    0.0000 C   0  0
    1.8808    2.0681    0.0000 O   0  0
 17 29  1  0
 11 13  1  0
  7  9  1  0
 28 18  1  0
  4  5  1  0
 18 19  2  0
 19 15  1  0
  2 10  1  0
 16 20  2  0
  2  3  1  0
 20 21  1  0
 10 11  1  0
 21 24  2  0
  5  6  2  0
 10 12  2  0
 23 22  2  0
 22 16  1  0
 23 24  1  0
  6  1  1  0
  9 14  1  0
  1  2  2  0
 14 15  1  0
 24 25  1  0
 25 26  1  0
 26 27  1  0
 27 23  1  0
 28 29  2  0
  4  7  1  0
 13 16  1  0
  3  4  2  0
 15 17  2  0
  7  8  2  0
 29 30  1  0
 30 31  1  0
 31 32  1  0
 32 28  1  0
M  END
>  <ID_NEW>
CPDMM2356

>  <pIC50>
4.0

$$$$

  SciTegic12180812222D

 34 36  0  0  0  0            999 V2000
   -2.3682    1.9127    0.0000 N   0  0
   -2.3693    1.3894    0.0000 C   0  0
   -1.9253    1.1349    0.0000 C   0  0
   -1.4839    1.3899    0.0000 C   0  0
   -1.4867    1.9163    0.0000 N   0  0
   -1.9271    2.1671    0.0000 C   0  0
   -1.0437    1.1368    0.0000 C   0  0
   -1.0425    0.6200    0.0000 O   0  0
   -0.6049    1.4047    0.0000 N   0  0
   -2.8131    1.1358    0.0000 C   0  0
   -3.2483    1.3906    0.0000 N   0  0
   -2.8138    0.6190    0.0000 O   0  0
   -3.6917    1.1458    0.0000 C   0  0
   -0.1667    1.1459    0.0000 C   0  0
    0.2750    1.4042    0.0000 C   0  0
   -4.1333    1.4043    0.0000 C   0  0
    0.7143    1.1477    0.0000 C   0  0
    0.7108    2.1694    0.0000 C   0  0
    0.2715    1.9141    0.0000 C   0  0
   -4.1445    1.9167    0.0000 C   0  0
   -4.5856    2.1709    0.0000 C   0  0
   -4.5767    1.1429    0.0000 C   0  0
   -5.0306    1.3904    0.0000 C   0  0
   -5.0292    1.9183    0.0000 C   0  0
   -5.5304    2.0701    0.0000 O   0  0
   -5.5216    1.2248    0.0000 O   0  0
    1.1496    1.9191    0.0000 C   0  0
    1.1503    1.4069    0.0000 C   0  0
    1.6361    1.2507    0.0000 O   0  0
    1.6350    2.0681    0.0000 O   0  0
    1.7437    0.7519    0.0000 C   0  0
    1.7486    2.5630    0.0000 C   0  0
   -5.6495    2.5800    0.0000 C   0  0
   -5.6237    0.7168    0.0000 C   0  0
 27 18  1  0
  4  5  1  0
 18 19  2  0
 19 15  1  0
  2 10  1  0
 16 20  2  0
  2  3  1  0
 20 21  1  0
 10 11  1  0
 21 24  2  0
  5  6  2  0
 10 12  2  0
 23 22  2  0
 22 16  1  0
 23 24  1  0
  6  1  1  0
  9 14  1  0
  1  2  2  0
 14 15  1  0
 24 25  1  0
 26 23  1  0
 27 28  2  0
  4  7  1  0
 13 16  1  0
  3  4  2  0
 15 17  2  0
  7  8  2  0
 28 29  1  0
 30 27  1  0
 29 31  1  0
 17 28  1  0
 30 32  1  0
 11 13  1  0
 25 33  1  0
  7  9  1  0
 26 34  1  0
M  END
>  <ID_NEW>
CPDMM2357

>  <pIC50>
4.0

$$$$

  SciTegic12180812222D

 36 38  0  0  0  0            999 V2000
    0.3735    1.6502    0.0000 N   0  0
    0.3724    1.1644    0.0000 C   0  0
    0.7872    0.9224    0.0000 C   0  0
    1.1995    1.1649    0.0000 C   0  0
    1.1967    1.6538    0.0000 N   0  0
    0.7854    1.8879    0.0000 C   0  0
    1.6063    0.9243    0.0000 C   0  0
    1.6075    0.4450    0.0000 O   0  0
    2.0160    1.1755    0.0000 N   0  0
   -0.0422    0.9233    0.0000 C   0  0
   -0.4483    1.1656    0.0000 N   0  0
   -0.0429    0.4440    0.0000 O   0  0
   -0.8667    0.9333    0.0000 C   0  0
    2.4250    0.9334    0.0000 C   0  0
    2.8417    1.1750    0.0000 C   0  0
   -1.2749    1.1751    0.0000 C   0  0
    3.2477    0.9352    0.0000 C   0  0
    3.2442    1.8902    0.0000 C   0  0
    2.8340    1.6516    0.0000 C   0  0
   -1.2820    1.6542    0.0000 C   0  0
   -1.6981    1.8917    0.0000 C   0  0
   -1.6892    0.9304    0.0000 C   0  0
   -2.1140    1.1654    0.0000 C   0  0
   -2.1126    1.6558    0.0000 C   0  0
   -2.5716    1.0081    0.0000 O   0  0
    3.6579    1.6566    0.0000 C   0  0
    3.6587    1.1777    0.0000 C   0  0
    4.1111    1.0299    0.0000 O   0  0
   -2.9958    1.2542    0.0000 C   0  0
    4.5167    1.2750    0.0000 C   0  0
   -2.9949    1.7446    0.0000 F   0  0
   -3.4210    1.0098    0.0000 F   0  0
   -3.4208    1.5000    0.0000 F   0  0
    4.9317    1.0463    0.0000 F   0  0
    4.5072    1.7488    0.0000 F   0  0
    4.9250    1.5125    0.0000 F   0  0
 23 22  2  0
 22 16  1  0
 23 24  1  0
  6  1  1  0
  9 14  1  0
  1  2  2  0
 14 15  1  0
 25 23  1  0
 26 27  2  0
  4  7  1  0
 13 16  1  0
  3  4  2  0
 15 17  2  0
  7  8  2  0
 27 28  1  0
 17 27  1  0
 11 13  1  0
  7  9  1  0
 26 18  1  0
  4  5  1  0
 18 19  2  0
 19 15  1  0
  2 10  1  0
 25 29  1  0
 16 20  2  0
 28 30  1  0
  2  3  1  0
 29 31  1  0
 20 21  1  0
 29 32  1  0
 10 11  1  0
 29 33  1  0
 21 24  2  0
 30 34  1  0
  5  6  2  0
 30 35  1  0
 10 12  2  0
 30 36  1  0
M  END
>  <ID_NEW>
CPDMM2358

>  <pIC50>
4.0

$$$$

  -MTS-   10172316422D 0   0.00000     0.00000     0

 32 34  0  0  1  0  0  0  0  0999 V2000
   -2.2850    1.9420    0.0000 N   0  0  0  0  0  0  0  0  0  0  0  0
   -2.2860    1.3890    0.0000 C   0  0  0  0  0  0  0  0  0  0  0  0
   -1.8170    1.1220    0.0000 C   0  0  0  0  0  0  0  0  0  0  0  0
   -1.3550    1.3900    0.0000 C   0  0  0  0  0  0  0  0  0  0  0  0
   -1.3570    1.9450    0.0000 N   0  0  0  0  0  0  0  0  0  0  0  0
   -1.8190    2.2090    0.0000 C   0  0  0  0  0  0  0  0  0  0  0  0
   -0.8980    1.1240    0.0000 C   0  0  0  0  0  0  0  0  0  0  0  0
   -0.8970    0.5820    0.0000 O   0  0  0  0  0  0  0  0  0  0  0  0
   -0.4340    1.4050    0.0000 N   0  0  0  0  0  0  0  0  0  0  0  0
   -2.7510    1.1230    0.0000 C   0  0  0  0  0  0  0  0  0  0  0  0
   -3.2110    1.3910    0.0000 N   0  0  0  0  0  0  0  0  0  0  0  0
   -2.7510    0.5810    0.0000 O   0  0  0  0  0  0  0  0  0  0  0  0
   -3.6790    1.1330    0.0000 C   0  0  2  0  0  0  0  0  0  0  0  0
    0.0250    1.1330    0.0000 C   0  0  2  0  0  0  0  0  0  0  0  0
    0.4960    1.4040    0.0000 C   0  0  0  0  0  0  0  0  0  0  0  0
   -4.1420    1.4040    0.0000 C   0  0  0  0  0  0  0  0  0  0  0  0
    0.9520    1.1350    0.0000 C   0  0  0  0  0  0  0  0  0  0  0  0
    0.9480    2.2110    0.0000 C   0  0  0  0  0  0  0  0  0  0  0  0
    0.4880    1.9430    0.0000 C   0  0  0  0  0  0  0  0  0  0  0  0
   -4.1530    1.9460    0.0000 C   0  0  0  0  0  0  0  0  0  0  0  0
   -4.6190    2.2130    0.0000 C   0  0  0  0  0  0  0  0  0  0  0  0
   -4.6060    1.1300    0.0000 C   0  0  0  0  0  0  0  0  0  0  0  0
   -5.0890    1.3900    0.0000 C   0  0  0  0  0  0  0  0  0  0  0  0
   -5.0870    1.9470    0.0000 C   0  0  0  0  0  0  0  0  0  0  0  0
   -5.6010    1.2160    0.0000 O   0  0  0  0  0  0  0  0  0  0  0  0
    1.4120    1.9480    0.0000 C   0  0  0  0  0  0  0  0  0  0  0  0
    1.4170    1.4070    0.0000 C   0  0  0  0  0  0  0  0  0  0  0  0
    1.9240    1.2420    0.0000 O   0  0  0  0  0  0  0  0  0  0  0  0
    2.0350    0.7230    0.0000 C   0  0  0  0  0  0  0  0  0  0  0  0
   -5.7070    0.6880    0.0000 C   0  0  0  0  0  0  0  0  0  0  0  0
   -3.6870    0.6040    0.0000 C   0  0  0  0  0  0  0  0  0  0  0  0
    0.0210    0.6080    0.0000 C   0  0  0  0  0  0  0  0  0  0  0  0
  4  5  1  0  0  0  0
 18 19  2  0  0  0  0
 19 15  1  0  0  0  0
  2 10  1  0  0  0  0
 16 20  2  0  0  0  0
  2  3  1  0  0  0  0
 20 21  1  0  0  0  0
 10 11  1  0  0  0  0
 21 24  2  0  0  0  0
  5  6  2  0  0  0  0
 10 12  2  0  0  0  0
 23 22  2  0  0  0  0
 22 16  1  0  0  0  0
 23 24  1  0  0  0  0
  6  1  1  0  0  0  0
  9 14  1  0  0  0  0
  1  2  2  0  0  0  0
 14 15  1  0  0  0  0
 25 23  1  0  0  0  0
 26 27  2  0  0  0  0
  4  7  1  0  0  0  0
 13 16  1  0  0  0  0
  3  4  2  0  0  0  0
 15 17  2  0  0  0  0
  7  8  2  0  0  0  0
 27 28  1  0  0  0  0
 28 29  1  0  0  0  0
 17 27  1  0  0  0  0
 11 13  1  0  0  0  0
  7  9  1  0  0  0  0
 25 30  1  0  0  0  0
 13 31  1  1  0  0  0
 26 18  1  0  0  0  0
 14 32  1  6  0  0  0
M  END
>  <ID_NEW>
CPDMM2359

>  <pIC50>
4.0

$$$$

  SciTegic12180812242D

 30 32  0  0  0  0            999 V2000
    1.2486    1.0292    0.0000 N   0  0
    1.2474    0.2018    0.0000 C   0  0
    1.9622   -0.2110    0.0000 C   0  0
    2.6787    0.2023    0.0000 C   0  0
    2.6758    1.0328    0.0000 N   0  0
    1.9604    1.4420    0.0000 C   0  0
    0.5326   -0.2101    0.0000 C   0  0
   -0.1815    0.2030    0.0000 N   0  0
    0.5320   -1.0351    0.0000 O   0  0
    3.3938   -0.2091    0.0000 C   0  0
    3.3951   -1.0341    0.0000 O   0  0
    4.1076    0.2046    0.0000 N   0  0
    4.8227   -0.2068    0.0000 C   0  0
    5.5365    0.2068    0.0000 C   0  0
   -0.8963   -0.2090    0.0000 C   0  0
   -1.6105    0.2041    0.0000 C   0  0
   -1.6050    1.0301    0.0000 C   0  0
   -2.3183    1.4431    0.0000 C   0  0
   -3.0341    1.0311    0.0000 C   0  0
   -3.0321    0.2018    0.0000 C   0  0
   -2.3182   -0.2074    0.0000 C   0  0
    6.2504   -0.2059    0.0000 C   0  0
    6.9637    0.2070    0.0000 C   0  0
    6.9628    1.0329    0.0000 C   0  0
    6.2427    1.4441    0.0000 C   0  0
    5.5323    1.0288    0.0000 C   0  0
   -3.7454   -0.2126    0.0000 C   0  0
   -3.7488    1.4432    0.0000 F   0  0
    7.6761    1.4474    0.0000 F   0  0
    7.6786   -0.2047    0.0000 C   0  0
  8 15  1  0
  3  4  2  0
 15 16  1  0
  7  8  1  0
 16 17  2  0
 17 18  1  0
  7  9  2  0
 18 19  2  0
  4  5  1  0
 19 20  1  0
  4 10  1  0
 20 21  2  0
 21 16  1  0
  2  3  1  0
 14 22  2  0
 10 11  2  0
 22 23  1  0
  5  6  2  0
 23 24  2  0
 10 12  1  0
 24 25  1  0
  6  1  1  0
 25 26  2  0
 26 14  1  0
 12 13  1  0
 20 27  1  0
  1  2  2  0
 19 28  1  0
 13 14  1  0
 24 29  1  0
  2  7  1  0
 23 30  1  0
M  END
>  <ID_NEW>
CPDMM2360

>  <pIC50>
4.0

$$$$

  SciTegic12180812242D

 36 38  0  0  0  0            999 V2000
    0.0611    1.6834    0.0000 N   0  0
    0.0599    1.1226    0.0000 C   0  0
    0.5455    0.8432    0.0000 C   0  0
    1.0329    1.1231    0.0000 C   0  0
    1.0300    1.6870    0.0000 N   0  0
    0.5437    1.9628    0.0000 C   0  0
   -0.4216    0.8441    0.0000 C   0  0
   -0.9023    1.1238    0.0000 N   0  0
   -0.4222    0.2857    0.0000 O   0  0
    1.5146    0.8451    0.0000 C   0  0
    1.5159    0.2867    0.0000 O   0  0
    1.9993    1.1254    0.0000 N   0  0
    2.4810    0.8474    0.0000 C   0  0
    2.9657    1.1276    0.0000 C   0  0
   -1.3838    0.8452    0.0000 C   0  0
   -1.8688    1.1249    0.0000 C   0  0
   -1.8675    1.6843    0.0000 C   0  0
   -2.3475    1.9639    0.0000 C   0  0
   -2.8341    1.6853    0.0000 C   0  0
   -2.8321    1.1226    0.0000 C   0  0
   -2.3474    0.8468    0.0000 C   0  0
    3.4462    0.8483    0.0000 C   0  0
    3.9304    1.1278    0.0000 C   0  0
    3.9295    1.6871    0.0000 C   0  0
    3.4385    1.9649    0.0000 C   0  0
    2.9615    1.6830    0.0000 C   0  0
   -3.3162    0.8457    0.0000 C   0  0
   -3.3196    1.9640    0.0000 Cl  0  0
    4.4136    1.9682    0.0000 Cl  0  0
    4.4161    0.8495    0.0000 C   0  0
   -3.7981    1.1266    0.0000 F   0  0
   -3.3185    0.2880    0.0000 F   0  0
   -3.8000    0.5708    0.0000 F   0  0
    4.4179    0.2896    0.0000 F   0  0
    4.9000    1.1309    0.0000 F   0  0
    4.8958    0.5708    0.0000 F   0  0
 17 18  1  0
  7  9  2  0
 18 19  2  0
  4  5  1  0
 19 20  1  0
  4 10  1  0
 20 21  2  0
 21 16  1  0
  2  3  1  0
 14 22  2  0
 10 11  2  0
 22 23  1  0
  5  6  2  0
 23 24  2  0
 10 12  1  0
 24 25  1  0
  6  1  1  0
 25 26  2  0
 26 14  1  0
 12 13  1  0
 20 27  1  0
  1  2  2  0
 19 28  1  0
 13 14  1  0
 24 29  1  0
  2  7  1  0
 23 30  1  0
 27 31  1  0
  8 15  1  0
 27 32  1  0
  3  4  2  0
 27 33  1  0
 15 16  1  0
 30 34  1  0
  7  8  1  0
 30 35  1  0
 16 17  2  0
 30 36  1  0
M  END
>  <ID_NEW>
CPDMM2361

>  <pIC50>
4.0

$$$$

  SciTegic12180812242D

 30 32  0  0  0  0            999 V2000
   -0.1722    1.5709    0.0000 N   0  0
   -0.1734    1.0684    0.0000 C   0  0
    0.2580    0.8182    0.0000 C   0  0
    0.6912    1.0689    0.0000 C   0  0
    0.6883    1.5745    0.0000 N   0  0
    0.2562    1.8211    0.0000 C   0  0
   -0.6049    0.8191    0.0000 C   0  0
   -1.0356    1.0696    0.0000 N   0  0
   -0.6055    0.3232    0.0000 O   0  0
    1.1229    0.8201    0.0000 C   0  0
    1.1242    0.3242    0.0000 O   0  0
    1.5576    1.0712    0.0000 N   0  0
    1.9852    0.8224    0.0000 C   0  0
    2.4199    1.0734    0.0000 C   0  0
   -1.4630    0.8202    0.0000 C   0  0
   -1.8980    1.0707    0.0000 C   0  0
   -1.8967    1.5718    0.0000 C   0  0
   -2.3225    1.8222    0.0000 C   0  0
   -2.7591    1.5728    0.0000 C   0  0
   -2.7571    1.0684    0.0000 C   0  0
   -2.3224    0.8218    0.0000 C   0  0
    2.8462    0.8233    0.0000 C   0  0
    3.2804    1.0736    0.0000 C   0  0
    3.2795    1.5746    0.0000 C   0  0
    2.8427    1.8232    0.0000 C   0  0
    2.4157    1.5705    0.0000 C   0  0
   -3.1912    0.8207    0.0000 Cl  0  0
   -3.1904    1.8223    0.0000 C   0  0
    3.7136    1.8265    0.0000 C   0  0
    3.7161    0.8245    0.0000 Cl  0  0
 17 18  1  0
  7  9  2  0
 18 19  2  0
  4  5  1  0
 19 20  1  0
  4 10  1  0
 20 21  2  0
 21 16  1  0
  2  3  1  0
 14 22  2  0
 10 11  2  0
 22 23  1  0
  5  6  2  0
 23 24  2  0
 10 12  1  0
 24 25  1  0
  6  1  1  0
 25 26  2  0
 26 14  1  0
 12 13  1  0
 20 27  1  0
  1  2  2  0
 19 28  1  0
 13 14  1  0
 24 29  1  0
  2  7  1  0
 23 30  1  0
  8 15  1  0
  3  4  2  0
 15 16  1  0
  7  8  1  0
 16 17  2  0
M  END
>  <ID_NEW>
CPDMM2362

>  <pIC50>
4.0

$$$$

  SciTegic12180812242D

 28 30  0  0  0  0            999 V2000
    0.9402    1.7292    0.0000 C   0  0
    0.9391    0.9894    0.0000 C   0  0
    1.5789    0.6182    0.0000 C   0  0
    2.2244    0.9898    0.0000 C   0  0
    2.2216    1.7371    0.0000 C   0  0
    1.5771    2.1045    0.0000 C   0  0
    0.2993    0.6191    0.0000 C   0  0
   -0.3440    0.9905    0.0000 N   0  0
    0.2986   -0.1184    0.0000 O   0  0
    2.8564    0.6202    0.0000 C   0  0
    2.8576   -0.1173    0.0000 O   0  0
    3.4993    0.9963    0.0000 N   0  0
    4.1375    0.6292    0.0000 C   0  0
    4.7750    1.0000    0.0000 C   0  0
   -0.9917    0.6208    0.0000 C   0  0
   -1.6375    0.9958    0.0000 C   0  0
   -1.6331    1.7436    0.0000 C   0  0
   -2.2782    2.1185    0.0000 C   0  0
   -2.9268    1.7467    0.0000 C   0  0
   -2.9262    0.9960    0.0000 C   0  0
   -2.2806    0.6245    0.0000 C   0  0
    5.4145    0.6307    0.0000 C   0  0
    6.0516    1.0009    0.0000 C   0  0
    6.0496    1.7392    0.0000 C   0  0
    5.4052    2.1057    0.0000 C   0  0
    4.7707    1.7334    0.0000 C   0  0
   -3.5759    0.6200    0.0000 C   0  0
    6.6907    0.6343    0.0000 C   0  0
 13 14  1  0
  2  7  1  0
  8 15  1  0
  3  4  2  0
 15 16  1  0
  7  8  1  0
 16 17  2  0
  7  9  2  0
 17 18  1  0
  4  5  1  0
 18 19  2  0
  4 10  1  0
 19 20  1  0
  2  3  1  0
 20 21  2  0
 21 16  1  0
 10 11  2  0
 14 22  2  0
  5  6  2  0
 22 23  1  0
 10 12  1  0
 23 24  2  0
  6  1  1  0
 24 25  1  0
 25 26  2  0
 26 14  1  0
 12 13  1  0
 20 27  1  0
  1  2  2  0
 23 28  1  0
M  END
>  <ID_NEW>
CPDMM2363

>  <pIC50>
4.0

$$$$

  SciTegic12180812242D

 30 32  0  0  0  0            999 V2000
   -2.3806    1.6584    0.0000 N   0  0
   -2.3818    1.1143    0.0000 C   0  0
   -1.9171    0.8349    0.0000 C   0  0
   -1.4423    1.1148    0.0000 C   0  0
   -1.4452    1.6620    0.0000 N   0  0
   -1.9189    1.9295    0.0000 C   0  0
   -2.8508    0.8358    0.0000 C   0  0
   -3.3232    1.1155    0.0000 N   0  0
   -2.8514    0.2942    0.0000 O   0  0
   -0.9688    0.8368    0.0000 C   0  0
   -0.9675    0.2952    0.0000 O   0  0
   -0.5008    1.1172    0.0000 N   0  0
   -3.7964    0.8369    0.0000 C   0  0
   -4.2647    1.1166    0.0000 C   0  0
   -0.0398    0.8432    0.0000 C   0  0
    0.4364    1.1194    0.0000 C   0  0
   -4.2551    1.6593    0.0000 C   0  0
   -4.7309    1.9306    0.0000 C   0  0
   -5.1989    1.1143    0.0000 C   0  0
   -4.7308    0.8426    0.0000 C   0  0
    0.9004    0.8441    0.0000 C   0  0
    1.3762    1.1196    0.0000 C   0  0
    0.4280    1.6580    0.0000 C   0  0
   -5.2000    1.6667    0.0000 C   0  0
    0.8902    1.9345    0.0000 C   0  0
    1.3608    1.6725    0.0000 C   0  0
   -4.7293    2.4689    0.0000 Br  0  0
   -5.6650    1.9379    0.0000 F   0  0
    0.8818    2.4731    0.0000 Br  0  0
    1.8214    1.9519    0.0000 F   0  0
 20 14  1  0
  2  3  1  0
 16 21  2  0
 10 11  2  0
 21 22  1  0
  5  6  2  0
 22 26  2  0
 10 12  1  0
  6  1  1  0
 23 16  1  0
  8 13  1  0
  1  2  2  0
 13 14  1  0
  2  7  1  0
 12 15  1  0
  3  4  2  0
 19 24  1  0
 15 16  1  0
  7  8  1  0
 14 17  2  0
 17 18  1  0
 23 25  2  0
  7  9  2  0
 25 26  1  0
 18 24  2  0
 18 27  1  0
  4  5  1  0
 24 28  1  0
  4 10  1  0
 25 29  1  0
 19 20  2  0
 26 30  1  0
M  END
>  <ID_NEW>
CPDMM2364

>  <pIC50>
4.0

$$$$

  SciTegic12180812252D

 29 31  0  0  0  0            999 V2000
   -1.7045    2.8115    0.0000 N   0  0
   -1.6859    2.2682    0.0000 C   0  0
   -1.2056    2.0168    0.0000 C   0  0
   -0.7473    2.3077    0.0000 C   0  0
   -0.7701    2.8501    0.0000 N   0  0
   -1.2468    3.1018    0.0000 C   0  0
   -0.2698    2.0579    0.0000 C   0  0
   -0.2446    1.5128    0.0000 N   0  0
    0.1898    2.3491    0.0000 O   0  0
   -2.1437    1.9807    0.0000 C   0  0
   -2.6234    2.2323    0.0000 N   0  0
   -2.1246    1.4397    0.0000 O   0  0
    0.2360    1.2630    0.0000 C   0  0
   -2.6425    2.7734    0.0000 C   0  0
   -3.1221    3.0250    0.0000 C   0  0
   -3.1432    3.5686    0.0000 C   0  0
   -3.6220    3.8232    0.0000 C   0  0
   -4.0802    3.5348    0.0000 C   0  0
   -4.0540    2.9898    0.0000 C   0  0
   -3.5826    2.7417    0.0000 C   0  0
   -4.5088    2.6977    0.0000 Cl  0  0
   -4.5574    3.7830    0.0000 F   0  0
    0.7353    0.4697    0.0000 C   0  0
    0.2570    0.7211    0.0000 C   0  0
   -0.2028    0.4333    0.0000 C   0  0
   -0.1812   -0.1098    0.0000 C   0  0
    0.3018   -0.3590    0.0000 C   0  0
    0.7584   -0.0691    0.0000 C   0  0
   -0.6357   -0.4026    0.0000 F   0  0
  2  3  1  0
  2 10  1  0
  1  2  2  0
  3  4  2  0
 10 11  1  0
 10 12  2  0
  6  1  1  0
  4  5  1  0
  4  7  1  0
 11 14  1  0
  7  8  1  0
  7  9  2  0
 14 15  1  0
  8 13  1  0
 20 15  1  0
 15 16  2  0
 13 24  1  0
 19 20  2  0
 16 17  1  0
 18 19  1  0
 19 21  1  0
 18 22  1  0
  5  6  2  0
 17 18  2  0
 26 27  1  0
 24 25  1  0
 27 28  2  0
 28 23  1  0
 23 24  2  0
 25 26  2  0
 26 29  1  0
M  END
>  <ID_NEW>
CPDMM2365

>  <pIC50>
4.0

$$$$

  SciTegic12180812272D

 32 36  0  0  0  0            999 V2000
    1.5445    0.8834    0.0000 N   0  0
    1.5516    0.0559    0.0000 C   0  0
    2.2705   -0.3568    0.0000 C   0  0
    2.9829    0.0564    0.0000 C   0  0
    2.9717    0.8870    0.0000 C   0  0
    2.2604    1.2962    0.0000 C   0  0
    0.8326   -0.3684    0.0000 C   0  0
    0.1060    0.0405    0.0000 N   0  0
    0.8445   -1.1975    0.0000 O   0  0
    3.7021   -0.3507    0.0000 C   0  0
    3.7117   -1.1799    0.0000 O   0  0
    4.4159    0.0630    0.0000 N   0  0
   -0.6046   -0.3798    0.0000 C   0  0
   -1.3314    0.0249    0.0000 C   0  0
    5.1352   -0.3484    0.0000 C   0  0
    5.8549    0.0747    0.0000 C   0  0
    6.5744   -0.3415    0.0000 C   0  0
    6.5741    1.3116    0.0000 C   0  0
    5.8567    0.8998    0.0000 C   0  0
   -1.3449    0.8511    0.0000 C   0  0
   -2.0585    1.2599    0.0000 C   0  0
   -2.0422   -0.4040    0.0000 C   0  0
    7.2852    0.8978    0.0000 C   0  0
    7.2857    0.0714    0.0000 C   0  0
   -2.7646    0.0023    0.0000 C   0  0
   -2.7783    0.8282    0.0000 C   0  0
   -3.5465   -0.2603    0.0000 O   0  0
   -3.5599    1.0734    0.0000 O   0  0
    8.0698   -0.1796    0.0000 O   0  0
    8.0696    1.1523    0.0000 O   0  0
   -4.0346    0.4015    0.0000 C   0  0
    8.5511    0.4794    0.0000 C   0  0
 12 15  1  0
 16 17  2  0
 17 24  1  0
  3  4  2  0
 23 18  1  0
  7  8  1  0
 18 19  2  0
 19 16  1  0
  7  9  2  0
 14 20  2  0
  4  5  1  0
 20 21  1  0
 21 26  2  0
  4 10  1  0
 25 22  2  0
 22 14  1  0
 23 24  2  0
  2  3  1  0
 10 11  2  0
 25 26  1  0
  5  6  2  0
 10 12  1  0
 15 16  1  0
 25 27  1  0
  6  1  1  0
 26 28  1  0
  8 13  1  0
 24 29  1  0
  1  2  2  0
 23 30  1  0
 13 14  1  0
 28 31  1  0
 27 31  1  0
  2  7  1  0
 30 32  1  0
 32 29  1  0
M  END
>  <ID_NEW>
CPDMM2366

>  <pIC50>
4.0

$$$$

  SciTegic12180812302D

 30 32  0  0  0  0            999 V2000
    0.0611    1.7084    0.0000 N   0  0
    0.0599    1.1476    0.0000 C   0  0
    0.5413    0.8682    0.0000 C   0  0
    1.0329    1.1481    0.0000 C   0  0
    1.0300    1.7120    0.0000 C   0  0
    0.5395    1.9837    0.0000 C   0  0
   -0.4257    0.8691    0.0000 C   0  0
   -0.9106    1.1488    0.0000 N   0  0
   -0.4263    0.3108    0.0000 O   0  0
    1.5188    0.8701    0.0000 C   0  0
    1.5201    0.3118    0.0000 O   0  0
    2.0035    1.1463    0.0000 N   0  0
   -1.3879    0.8702    0.0000 C   0  0
   -1.8688    1.1499    0.0000 C   0  0
    2.4769    0.8724    0.0000 C   0  0
    2.9656    1.1485    0.0000 C   0  0
   -1.8633    1.7093    0.0000 C   0  0
   -2.3558    1.9848    0.0000 C   0  0
   -2.8341    1.7103    0.0000 C   0  0
   -2.8363    1.1476    0.0000 C   0  0
   -2.3557    0.8718    0.0000 C   0  0
    3.4462    0.8733    0.0000 C   0  0
    3.9262    1.1487    0.0000 C   0  0
    3.9253    1.7121    0.0000 C   0  0
    3.4385    1.9858    0.0000 C   0  0
    2.9573    1.7038    0.0000 C   0  0
    4.4053    0.8717    0.0000 O   0  0
    4.4050    0.3184    0.0000 C   0  0
   -3.3238    0.8666    0.0000 O   0  0
   -3.3241    0.3038    0.0000 C   0  0
 22 23  1  0
  5  6  2  0
 23 24  2  0
 10 12  1  0
 24 25  1  0
  6  1  1  0
 25 26  2  0
 26 16  1  0
  8 13  1  0
  1  2  2  0
 13 14  1  0
  2  7  1  0
 12 15  1  0
  3  4  2  0
 15 16  1  0
  7  8  1  0
 14 17  2  0
 17 18  1  0
  7  9  2  0
 18 19  2  0
  4  5  1  0
 19 20  1  0
  4 10  1  0
 20 21  2  0
 21 14  1  0
 23 27  1  0
  2  3  1  0
 27 28  1  0
 16 22  2  0
 20 29  1  0
 10 11  2  0
 29 30  1  0
M  END
>  <ID_NEW>
CPDMM2367

>  <pIC50>
4.0

$$$$

  SciTegic12180812302D

 30 32  0  0  0  0            999 V2000
   -0.1555    1.7750    0.0000 N   0  0
   -0.1567    1.2767    0.0000 C   0  0
    0.2706    1.0265    0.0000 C   0  0
    0.7121    1.2772    0.0000 C   0  0
    0.7092    1.7786    0.0000 N   0  0
    0.2688    2.0213    0.0000 C   0  0
   -0.5883    1.0274    0.0000 C   0  0
   -1.0191    1.2779    0.0000 N   0  0
   -0.5889    0.5274    0.0000 O   0  0
    1.1480    1.0284    0.0000 C   0  0
    1.1493    0.5284    0.0000 O   0  0
    1.5785    1.2754    0.0000 N   0  0
   -1.4464    1.0285    0.0000 C   0  0
   -1.8773    1.2790    0.0000 C   0  0
    2.0019    1.0307    0.0000 C   0  0
    2.4365    1.2776    0.0000 C   0  0
   -1.8718    1.7759    0.0000 C   0  0
   -2.3143    2.0224    0.0000 C   0  0
   -2.7426    1.7769    0.0000 C   0  0
   -2.7448    1.2767    0.0000 C   0  0
   -2.3142    1.0301    0.0000 C   0  0
    2.8671    1.0316    0.0000 C   0  0
    3.2971    1.2778    0.0000 C   0  0
    3.2962    1.7787    0.0000 C   0  0
    2.8594    2.0234    0.0000 C   0  0
    2.4281    1.7705    0.0000 C   0  0
    3.7290    2.0308    0.0000 C   0  0
   -3.1718    2.0207    0.0000 C   0  0
   -3.6042    2.2708    0.0000 N   0  0
    4.1583    2.2875    0.0000 N   0  0
  2  7  1  0
 12 15  1  0
  3  4  2  0
 15 16  1  0
  7  8  1  0
 14 17  2  0
 17 18  1  0
  7  9  2  0
 18 19  2  0
  4  5  1  0
 19 20  1  0
  4 10  1  0
 20 21  2  0
 21 14  1  0
  2  3  1  0
 16 22  2  0
 10 11  2  0
 22 23  1  0
  5  6  2  0
 23 24  2  0
 10 12  1  0
 24 25  1  0
  6  1  1  0
 25 26  2  0
 24 27  1  0
 26 16  1  0
  8 13  1  0
 19 28  1  0
  1  2  2  0
 28 29  3  0
 13 14  1  0
 27 30  3  0
M  END
>  <ID_NEW>
CPDMM2368

>  <pIC50>
4.0

$$$$

  SciTegic12180812302D

 34 36  0  0  0  0            999 V2000
   -2.1139    1.8917    0.0000 N   0  0
   -2.1151    1.3934    0.0000 C   0  0
   -1.6878    1.1432    0.0000 C   0  0
   -1.2463    1.3939    0.0000 C   0  0
   -1.2492    1.8953    0.0000 N   0  0
   -1.6896    2.1379    0.0000 C   0  0
   -2.5467    1.1441    0.0000 C   0  0
   -2.9774    1.3946    0.0000 N   0  0
   -2.5473    0.6441    0.0000 O   0  0
   -0.8104    1.1451    0.0000 C   0  0
   -0.8091    0.6451    0.0000 O   0  0
   -0.3798    1.3921    0.0000 N   0  0
   -3.4047    1.1452    0.0000 C   0  0
   -3.8356    1.3957    0.0000 C   0  0
    0.0435    1.1474    0.0000 C   0  0
    0.4782    1.3943    0.0000 C   0  0
   -3.8301    1.8926    0.0000 C   0  0
   -4.2726    2.1390    0.0000 C   0  0
   -4.7009    1.8936    0.0000 C   0  0
   -4.7031    1.3934    0.0000 C   0  0
   -4.2725    1.1468    0.0000 C   0  0
    0.9088    1.1483    0.0000 C   0  0
    1.3388    1.3945    0.0000 C   0  0
    1.3379    1.8954    0.0000 C   0  0
    0.9011    2.1400    0.0000 C   0  0
    0.4698    1.8871    0.0000 C   0  0
   -5.1364    1.1435    0.0000 O   0  0
   -5.5695    1.3938    0.0000 C   0  0
    1.7677    1.1464    0.0000 O   0  0
    2.1970    1.3937    0.0000 C   0  0
    0.8961    2.6406    0.0000 O   0  0
    1.3272    2.8952    0.0000 C   0  0
   -4.2757    2.6455    0.0000 O   0  0
   -3.8386    2.9014    0.0000 C   0  0
 17 18  1  0
  7  9  2  0
 18 19  2  0
  4  5  1  0
 19 20  1  0
  4 10  1  0
 20 21  2  0
 21 14  1  0
  2  3  1  0
 16 22  2  0
 10 11  2  0
 22 23  1  0
  5  6  2  0
 23 24  2  0
 10 12  1  0
 24 25  1  0
  6  1  1  0
 25 26  2  0
 26 16  1  0
  8 13  1  0
  1  2  2  0
 20 27  1  0
 13 14  1  0
 27 28  1  0
  2  7  1  0
 23 29  1  0
 12 15  1  0
 29 30  1  0
  3  4  2  0
 25 31  1  0
 15 16  1  0
 31 32  1  0
  7  8  1  0
 18 33  1  0
 14 17  2  0
 33 34  1  0
M  END
>  <ID_NEW>
CPDMM2369

>  <pIC50>
4.0

$$$$

  SciTegic12180812302D

 30 32  0  0  0  0            999 V2000
   -2.3806    1.5167    0.0000 N   0  0
   -2.3818    1.0142    0.0000 C   0  0
   -1.9545    0.7640    0.0000 C   0  0
   -1.5130    1.0147    0.0000 C   0  0
   -1.5159    1.5203    0.0000 N   0  0
   -1.9563    1.7587    0.0000 C   0  0
   -2.8134    0.7649    0.0000 C   0  0
   -3.2441    1.0154    0.0000 N   0  0
   -2.8140    0.2649    0.0000 O   0  0
   -1.0771    0.7659    0.0000 C   0  0
   -1.0758    0.2659    0.0000 O   0  0
   -0.6465    1.0129    0.0000 N   0  0
   -3.6714    0.7660    0.0000 C   0  0
   -4.1023    1.0165    0.0000 C   0  0
   -0.2232    0.7682    0.0000 C   0  0
    0.2115    1.0151    0.0000 C   0  0
   -4.0968    1.5176    0.0000 C   0  0
   -4.5393    1.7598    0.0000 C   0  0
   -4.9676    1.5186    0.0000 C   0  0
   -4.9698    1.0142    0.0000 C   0  0
   -4.5392    0.7676    0.0000 C   0  0
    0.6421    0.7691    0.0000 C   0  0
    1.0721    1.0153    0.0000 C   0  0
    1.0712    1.5204    0.0000 C   0  0
    0.6344    1.7608    0.0000 C   0  0
    0.2031    1.5079    0.0000 C   0  0
   -5.4067    0.7622    0.0000 C   0  0
   -5.3914    1.7676    0.0000 C   0  0
    1.5010    0.7672    0.0000 C   0  0
    1.5058    1.7778    0.0000 C   0  0
  4  5  1  0
 19 20  1  0
  4 10  1  0
 20 21  2  0
 21 14  1  0
  2  3  1  0
 16 22  2  0
 10 11  2  0
 22 23  1  0
  5  6  2  0
 23 24  2  0
 10 12  1  0
 24 25  1  0
  6  1  1  0
 25 26  2  0
 26 16  1  0
  8 13  1  0
  1  2  2  0
 13 14  1  0
  2  7  1  0
 12 15  1  0
  3  4  2  0
 15 16  1  0
  7  8  1  0
 14 17  2  0
 20 27  1  0
 17 18  1  0
 19 28  1  0
  7  9  2  0
 23 29  1  0
 18 19  2  0
 24 30  1  0
M  END
>  <ID_NEW>
CPDMM2370

>  <pIC50>
4.0

$$$$

  SciTegic12180812302D

 30 32  0  0  0  0            999 V2000
   -2.2181    1.9542    0.0000 N   0  0
   -2.2193    1.3934    0.0000 C   0  0
   -1.7420    1.1098    0.0000 C   0  0
   -1.2463    1.3939    0.0000 C   0  0
   -1.2492    1.9578    0.0000 N   0  0
   -1.7438    2.2254    0.0000 C   0  0
   -2.7009    1.1107    0.0000 C   0  0
   -3.1816    1.3946    0.0000 N   0  0
   -2.7015    0.5566    0.0000 O   0  0
   -0.7604    1.1117    0.0000 C   0  0
   -0.7591    0.5576    0.0000 O   0  0
   -0.2798    1.3921    0.0000 N   0  0
   -3.6589    1.1118    0.0000 C   0  0
   -4.1398    1.3957    0.0000 C   0  0
    0.1935    1.1182    0.0000 C   0  0
    0.6824    1.3943    0.0000 C   0  0
   -4.1384    1.9551    0.0000 C   0  0
   -4.6309    2.2265    0.0000 C   0  0
   -5.1092    1.9561    0.0000 C   0  0
   -5.1114    1.3934    0.0000 C   0  0
   -4.6308    1.1176    0.0000 C   0  0
    1.1630    1.1191    0.0000 C   0  0
    1.6430    1.3945    0.0000 C   0  0
    1.6421    1.9579    0.0000 C   0  0
    1.1553    2.2275    0.0000 C   0  0
    0.6740    1.9412    0.0000 C   0  0
   -5.5947    2.2406    0.0000 S   0  0
   -5.5911    2.8034    0.0000 C   0  0
    2.1272    2.2444    0.0000 S   0  0
    2.1218    2.8078    0.0000 C   0  0
 20 21  2  0
 21 14  1  0
  2  3  1  0
 16 22  2  0
 10 11  2  0
 22 23  1  0
  5  6  2  0
 23 24  2  0
 10 12  1  0
 24 25  1  0
  6  1  1  0
 25 26  2  0
 26 16  1  0
  8 13  1  0
  1  2  2  0
 13 14  1  0
  2  7  1  0
 12 15  1  0
  3  4  2  0
 15 16  1  0
  7  8  1  0
 14 17  2  0
 17 18  1  0
  7  9  2  0
 18 19  2  0
 19 27  1  0
  4  5  1  0
 27 28  1  0
 19 20  1  0
 24 29  1  0
  4 10  1  0
 29 30  1  0
M  END
>  <ID_NEW>
CPDMM2371

>  <pIC50>
4.0

$$$$

  SciTegic12180812312D

 36 38  0  0  0  0            999 V2000
    0.0277    0.3500    0.0000 N   0  0
    0.0265   -0.1940    0.0000 C   0  0
    0.4913   -0.4734    0.0000 C   0  0
    0.9661   -0.1935    0.0000 C   0  0
    0.9632    0.3536    0.0000 N   0  0
    0.4895    0.6212    0.0000 C   0  0
   -0.4425   -0.4725    0.0000 C   0  0
   -0.9149   -0.1928    0.0000 N   0  0
   -0.4431   -1.0142    0.0000 O   0  0
    1.4396   -0.4715    0.0000 C   0  0
    1.4409   -1.0132    0.0000 O   0  0
    1.9076   -0.1912    0.0000 N   0  0
   -1.3881   -0.4714    0.0000 C   0  0
   -1.8564   -0.1917    0.0000 C   0  0
    2.3685   -0.4651    0.0000 C   0  0
    2.8447   -0.1890    0.0000 C   0  0
   -1.8468    0.3509    0.0000 C   0  0
   -2.3226    0.6223    0.0000 C   0  0
   -2.7906   -0.1940    0.0000 C   0  0
   -2.3225   -0.4657    0.0000 C   0  0
    3.3087   -0.4642    0.0000 C   0  0
    3.7845   -0.1888    0.0000 C   0  0
    3.7836    0.3537    0.0000 C   0  0
    3.3010    0.6233    0.0000 C   0  0
    2.8363    0.3496    0.0000 C   0  0
   -2.7917    0.3583    0.0000 C   0  0
    3.2947    1.1760    0.0000 F   0  0
    4.2610   -0.4630    0.0000 C   0  0
   -2.3210    1.1606    0.0000 F   0  0
   -3.2593   -0.4646    0.0000 C   0  0
   -3.7280   -0.1939    0.0000 F   0  0
   -3.2594   -1.0058    0.0000 F   0  0
   -3.3994    0.0583    0.0000 F   0  0
    4.2618   -1.0128    0.0000 F   0  0
    4.7368   -0.1874    0.0000 F   0  0
    3.8728   -0.8523    0.0000 F   0  0
 21 22  1  0
  5  6  2  0
 22 23  2  0
 10 12  1  0
 23 24  1  0
  6  1  1  0
 24 25  2  0
 25 16  1  0
  8 13  1  0
  1  2  2  0
 13 14  1  0
  2  7  1  0
 12 15  1  0
  3  4  2  0
 19 26  1  0
 15 16  1  0
  7  8  1  0
 14 17  2  0
 17 18  1  0
 24 27  1  0
  7  9  2  0
 22 28  1  0
 18 26  2  0
 18 29  1  0
  4  5  1  0
 19 30  1  0
  4 10  1  0
 30 31  1  0
 19 20  2  0
 30 32  1  0
 20 14  1  0
 30 33  1  0
  2  3  1  0
 28 34  1  0
 16 21  2  0
 28 35  1  0
 10 11  2  0
 28 36  1  0
M  END
>  <ID_NEW>
CPDMM2372

>  <pIC50>
4.0

$$$$

  SciTegic12180812312D

 32 34  0  0  0  0            999 V2000
   -2.1140    1.6251    0.0000 N   0  0
   -2.1152    1.1268    0.0000 C   0  0
   -1.6880    0.8724    0.0000 C   0  0
   -1.2549    1.1273    0.0000 C   0  0
   -1.2578    1.6287    0.0000 N   0  0
   -1.6898    1.8753    0.0000 C   0  0
   -2.5425    0.8733    0.0000 C   0  0
   -2.9732    1.1280    0.0000 N   0  0
   -2.5431    0.3776    0.0000 O   0  0
   -0.8230    0.8743    0.0000 C   0  0
   -0.8217    0.3786    0.0000 O   0  0
   -0.3925    1.1339    0.0000 N   0  0
   -3.4089    0.8744    0.0000 C   0  0
   -3.8356    1.1291    0.0000 C   0  0
    0.0269    0.8807    0.0000 C   0  0
    0.4656    1.1361    0.0000 C   0  0
   -3.8301    1.6260    0.0000 C   0  0
   -4.2684    1.8764    0.0000 C   0  0
   -4.6906    1.1268    0.0000 C   0  0
   -4.2683    0.8801    0.0000 C   0  0
    0.8879    0.8816    0.0000 C   0  0
    1.3220    1.1363    0.0000 C   0  0
    1.3211    1.6288    0.0000 C   0  0
    0.8802    1.8774    0.0000 C   0  0
    0.4530    1.6247    0.0000 C   0  0
   -4.6917    1.6376    0.0000 C   0  0
   -5.1331    1.8947    0.0000 N   0  0
   -5.1311    2.4055    0.0000 C   0  0
   -5.5765    1.6411    0.0000 C   0  0
    1.7461    1.8776    0.0000 N   0  0
    2.1741    1.6339    0.0000 C   0  0
    1.7431    2.3701    0.0000 C   0  0
 24 25  2  0
 25 16  1  0
  8 13  1  0
  1  2  2  0
 13 14  1  0
  2  7  1  0
 12 15  1  0
  3  4  2  0
 19 26  1  0
 15 16  1  0
  7  8  1  0
 14 17  2  0
 17 18  1  0
  7  9  2  0
 18 26  2  0
  4  5  1  0
  4 10  1  0
 19 20  2  0
 20 14  1  0
  2  3  1  0
 16 21  2  0
 10 11  2  0
 21 22  1  0
 26 27  1  0
  5  6  2  0
 27 28  1  0
 22 23  2  0
 27 29  1  0
 10 12  1  0
 23 30  1  0
 23 24  1  0
 30 31  1  0
  6  1  1  0
 30 32  1  0
M  END
>  <ID_NEW>
CPDMM2373

>  <pIC50>
4.0

$$$$

  SciTegic12180812312D

 28 30  0  0  0  0            999 V2000
   -2.6014    1.9333    0.0000 N   0  0
   -2.5930    1.3482    0.0000 C   0  0
   -2.0801    1.0659    0.0000 C   0  0
   -1.5793    1.3760    0.0000 C   0  0
   -1.6042    1.9727    0.0000 N   0  0
   -2.1173    2.2346    0.0000 C   0  0
   -1.0702    1.1082    0.0000 C   0  0
   -1.0547    0.5338    0.0000 O   0  0
   -0.5848    1.4276    0.0000 N   0  0
   -0.0714    1.1472    0.0000 C   0  0
    0.4140    1.4579    0.0000 C   0  0
   -3.0844    1.0362    0.0000 C   0  0
   -3.5875    1.3069    0.0000 N   0  0
   -3.0640    0.4616    0.0000 O   0  0
   -4.0832    1.0073    0.0000 C   0  0
   -4.5908    1.2739    0.0000 C   0  0
   -4.6073    1.8442    0.0000 C   0  0
   -5.1140    2.1317    0.0000 N   0  0
   -5.0760    0.9780    0.0000 C   0  0
    0.9259    1.1777    0.0000 C   0  0
    0.8817    2.3431    0.0000 C   0  0
    0.3956    2.0265    0.0000 C   0  0
   -5.5832    1.2324    0.0000 C   0  0
   -5.6033    1.8135    0.0000 C   0  0
    1.3959    2.0757    0.0000 C   0  0
    1.4144    1.5024    0.0000 C   0  0
    1.9702    1.3472    0.0000 O   0  0
    2.1153    0.7887    0.0000 C   0  0
 16 17  2  0
  1  2  2  0
 17 18  1  0
 18 24  2  0
  7  9  1  0
 23 19  2  0
 19 16  1  0
  3  4  2  0
 11 20  2  0
  9 10  1  0
 20 26  1  0
  6  1  1  0
 10 11  1  0
 25 21  1  0
  4  5  1  0
 21 22  2  0
 22 11  1  0
  2 12  1  0
 23 24  1  0
  5  6  2  0
 12 13  1  0
 12 14  2  0
  4  7  1  0
 25 26  2  0
 13 15  1  0
  2  3  1  0
 15 16  1  0
  7  8  2  0
 26 27  1  0
 27 28  1  0
M  END
>  <ID_NEW>
CPDMM2374

>  <pIC50>
4.0

$$$$

  SciTegic12180812312D

 29 32  0  0  0  0            999 V2000
   -2.6638    1.9208    0.0000 N   0  0
   -2.6513    1.3482    0.0000 C   0  0
   -2.1509    1.0701    0.0000 C   0  0
   -1.6626    1.3760    0.0000 C   0  0
   -1.6833    1.9602    0.0000 N   0  0
   -2.1881    2.2179    0.0000 C   0  0
   -1.1618    1.1124    0.0000 C   0  0
   -1.1463    0.5505    0.0000 O   0  0
   -0.6847    1.4234    0.0000 N   0  0
   -0.1838    1.1514    0.0000 C   0  0
    0.2932    1.4537    0.0000 C   0  0
   -3.1343    1.0445    0.0000 C   0  0
   -3.6249    1.3069    0.0000 N   0  0
   -3.1139    0.4783    0.0000 O   0  0
   -4.1123    1.0115    0.0000 C   0  0
   -4.6074    1.2739    0.0000 C   0  0
   -4.6239    1.8359    0.0000 C   0  0
   -5.1223    2.1150    0.0000 N   0  0
   -5.0843    0.9822    0.0000 C   0  0
    0.7926    1.1819    0.0000 C   0  0
    0.7484    2.3223    0.0000 C   0  0
    0.2748    2.0140    0.0000 C   0  0
   -5.5831    1.2366    0.0000 C   0  0
   -5.5991    1.8052    0.0000 C   0  0
    1.2501    2.0590    0.0000 C   0  0
    1.2728    1.4982    0.0000 C   0  0
    1.8161    1.3472    0.0000 O   0  0
    2.1254    1.8136    0.0000 C   0  0
    1.7794    2.2533    0.0000 O   0  0
 16 17  2  0
  1  2  2  0
 17 18  1  0
 18 24  2  0
  7  9  1  0
 23 19  2  0
 19 16  1  0
  3  4  2  0
 11 20  2  0
  9 10  1  0
 20 26  1  0
  6  1  1  0
 10 11  1  0
 25 21  1  0
  4  5  1  0
 21 22  2  0
 22 11  1  0
  2 12  1  0
 23 24  1  0
  5  6  2  0
 12 13  1  0
 12 14  2  0
  4  7  1  0
 25 26  2  0
 13 15  1  0
  2  3  1  0
 15 16  1  0
  7  8  2  0
 26 27  1  0
 27 28  1  0
 28 29  1  0
 29 25  1  0
M  END
>  <ID_NEW>
CPDMM2375

>  <pIC50>
4.0

$$$$

  SciTegic12180812312D

 32 34  0  0  0  0            999 V2000
   -1.7003    2.7949    0.0000 N   0  0
   -1.6776    2.2391    0.0000 C   0  0
   -1.1931    1.9876    0.0000 C   0  0
   -0.7223    2.2744    0.0000 C   0  0
   -0.7493    2.8293    0.0000 N   0  0
   -1.2384    3.0810    0.0000 C   0  0
   -0.2406    2.0245    0.0000 C   0  0
   -0.2196    1.4753    0.0000 N   0  0
    0.2273    2.3199    0.0000 O   0  0
   -2.1437    1.9433    0.0000 C   0  0
   -2.6318    2.2073    0.0000 N   0  0
   -2.1246    1.3979    0.0000 O   0  0
    0.2693    1.2214    0.0000 C   0  0
   -2.6551    2.7566    0.0000 C   0  0
   -3.1472    3.0084    0.0000 C   0  0
   -3.1641    3.5603    0.0000 C   0  0
   -3.6512    3.8191    0.0000 C   0  0
   -4.1177    3.5223    0.0000 C   0  0
   -4.0915    2.9732    0.0000 C   0  0
   -3.6118    2.7209    0.0000 C   0  0
   -4.5547    2.6769    0.0000 Cl  0  0
   -4.6033    3.7789    0.0000 F   0  0
    0.7770    0.4114    0.0000 C   0  0
    0.2986    0.6711    0.0000 C   0  0
   -0.1736    0.3750    0.0000 C   0  0
   -0.1480   -0.1764    0.0000 C   0  0
    0.3434   -0.4339    0.0000 C   0  0
    0.8043   -0.1397    0.0000 C   0  0
   -0.6106   -0.4734    0.0000 C   0  0
   -1.1005   -0.2171    0.0000 F   0  0
   -0.5917   -1.0227    0.0000 F   0  0
   -0.7791    0.0511    0.0000 F   0  0
  2  3  1  0
  2 10  1  0
  1  2  2  0
  3  4  2  0
 10 11  1  0
 10 12  2  0
  6  1  1  0
  4  5  1  0
  4  7  1  0
 11 14  1  0
  7  8  1  0
  7  9  2  0
 14 15  1  0
  8 13  1  0
 20 15  1  0
 15 16  2  0
 13 24  1  0
 19 20  2  0
 16 17  1  0
 18 19  1  0
 19 21  1  0
 18 22  1  0
  5  6  2  0
 17 18  2  0
 28 23  1  0
 23 24  2  0
 25 26  2  0
 26 29  1  0
 26 27  1  0
 29 30  1  0
 24 25  1  0
 29 31  1  0
 27 28  2  0
 29 32  1  0
M  END
>  <ID_NEW>
CPDMM2376

>  <pIC50>
4.0

$$$$

  SciTegic12180812312D

 29 32  0  0  0  0            999 V2000
   -2.6638    1.9208    0.0000 N   0  0
   -2.6513    1.3482    0.0000 C   0  0
   -2.1509    1.0701    0.0000 C   0  0
   -1.6626    1.3760    0.0000 C   0  0
   -1.6833    1.9602    0.0000 N   0  0
   -2.1881    2.2179    0.0000 C   0  0
   -1.1618    1.1124    0.0000 C   0  0
   -1.1463    0.5505    0.0000 O   0  0
   -0.6847    1.4234    0.0000 N   0  0
   -0.1838    1.1514    0.0000 C   0  0
    0.2932    1.4537    0.0000 C   0  0
   -3.1343    1.0445    0.0000 C   0  0
   -3.6249    1.3069    0.0000 N   0  0
   -3.1139    0.4783    0.0000 O   0  0
   -4.1123    1.0115    0.0000 C   0  0
   -4.6074    1.2739    0.0000 C   0  0
   -4.6239    1.8359    0.0000 C   0  0
   -5.1223    2.1150    0.0000 N   0  0
   -5.0843    0.9822    0.0000 C   0  0
    0.7926    1.1819    0.0000 C   0  0
    0.7484    2.3223    0.0000 C   0  0
    0.2748    2.0140    0.0000 C   0  0
   -5.5831    1.2366    0.0000 C   0  0
   -5.5991    1.8052    0.0000 C   0  0
    1.2501    2.0590    0.0000 C   0  0
    1.2728    1.4982    0.0000 C   0  0
    1.8161    1.3472    0.0000 C   0  0
    2.1254    1.8136    0.0000 C   0  0
    1.7794    2.2533    0.0000 O   0  0
 16 17  2  0
  1  2  2  0
 17 18  1  0
 18 24  2  0
  7  9  1  0
 23 19  2  0
 19 16  1  0
  3  4  2  0
 11 20  2  0
  9 10  1  0
 20 26  1  0
  6  1  1  0
 10 11  1  0
 25 21  1  0
  4  5  1  0
 21 22  2  0
 22 11  1  0
  2 12  1  0
 23 24  1  0
  5  6  2  0
 12 13  1  0
 12 14  2  0
  4  7  1  0
 25 26  2  0
 13 15  1  0
  2  3  1  0
 15 16  1  0
  7  8  2  0
 26 27  1  0
 27 28  1  0
 28 29  1  0
 29 25  1  0
M  END
>  <ID_NEW>
CPDMM2377

>  <pIC50>
4.0

$$$$

  SciTegic12180812312D

 28 30  0  0  0  0            999 V2000
   -2.0186    1.9199    0.0000 N   0  0
   -1.9974    1.3890    0.0000 C   0  0
   -1.4530    1.1408    0.0000 C   0  0
   -0.9297    1.4391    0.0000 C   0  0
   -0.9508    1.9566    0.0000 N   0  0
   -1.4915    2.2053    0.0000 C   0  0
   -0.4211    1.1393    0.0000 C   0  0
   -0.4161    0.5518    0.0000 O   0  0
    0.0867    1.4394    0.0000 N   0  0
   -2.4819    1.0658    0.0000 C   0  0
   -3.0063    1.3284    0.0000 N   0  0
   -2.4419    0.4804    0.0000 O   0  0
   -3.4949    0.9886    0.0000 C   0  0
    0.5954    1.1395    0.0000 C   0  0
    1.1032    1.4397    0.0000 C   0  0
   -4.0236    1.2510    0.0000 C   0  0
   -4.0592    1.8434    0.0000 C   0  0
   -4.5827    2.0975    0.0000 C   0  0
   -5.0765    1.7702    0.0000 C   0  0
   -5.0294    1.1763    0.0000 C   0  0
   -4.5055    0.9218    0.0000 C   0  0
    1.6101    1.1470    0.0000 C   0  0
    1.5951    2.3220    0.0000 C   0  0
    1.0990    2.0244    0.0000 C   0  0
    2.1129    2.0391    0.0000 C   0  0
    2.1125    1.4515    0.0000 C   0  0
   -5.6016    2.0233    0.0000 F   0  0
   -5.5165    0.8467    0.0000 C   0  0
 13 16  1  0
  7  8  2  0
 16 17  2  0
  1  2  2  0
 17 18  1  0
  7  9  1  0
 18 19  2  0
  3  4  2  0
 19 20  1  0
  2 10  1  0
 20 21  2  0
 21 16  1  0
  6  1  1  0
 15 22  2  0
 22 26  1  0
 10 11  1  0
 25 23  1  0
  4  5  1  0
 23 24  2  0
 24 15  1  0
 25 26  2  0
 10 12  2  0
  5  6  2  0
 11 13  1  0
  9 14  1  0
  4  7  1  0
 19 27  1  0
 14 15  1  0
 20 28  1  0
  2  3  1  0
M  END
>  <ID_NEW>
CPDMM2378

>  <pIC50>
4.0

$$$$

  SciTegic12180812312D

 32 34  0  0  0  0            999 V2000
   -2.5681    1.5042    0.0000 N   0  0
   -2.5693    1.0310    0.0000 C   0  0
   -2.1671    0.7849    0.0000 C   0  0
   -1.7506    1.0315    0.0000 C   0  0
   -1.7535    1.5078    0.0000 N   0  0
   -2.1689    1.7421    0.0000 C   0  0
   -2.9800    0.7858    0.0000 C   0  0
   -3.3940    1.0322    0.0000 N   0  0
   -2.9806    0.3150    0.0000 O   0  0
   -1.3355    0.7868    0.0000 C   0  0
   -1.3342    0.3160    0.0000 O   0  0
   -0.9258    1.0297    0.0000 N   0  0
   -3.8089    0.7869    0.0000 C   0  0
   -4.2147    1.0333    0.0000 C   0  0
   -0.5273    0.7932    0.0000 C   0  0
   -0.1094    1.0319    0.0000 C   0  0
   -4.2093    1.5051    0.0000 C   0  0
   -4.6267    1.7432    0.0000 C   0  0
   -5.0364    1.0310    0.0000 C   0  0
   -4.6266    0.7926    0.0000 C   0  0
    0.2962    0.7941    0.0000 C   0  0
    0.7137    1.0321    0.0000 C   0  0
    0.7128    1.5079    0.0000 C   0  0
    0.2927    1.7442    0.0000 C   0  0
   -0.1178    1.5038    0.0000 C   0  0
   -5.0375    1.5125    0.0000 C   0  0
   -4.6251    2.2237    0.0000 F   0  0
   -5.4533    1.7552    0.0000 F   0  0
   -5.4535    0.7905    0.0000 F   0  0
    0.2885    2.2261    0.0000 F   0  0
    1.1233    1.7485    0.0000 F   0  0
    1.1294    0.7911    0.0000 F   0  0
  6  1  1  0
 24 25  2  0
 25 16  1  0
  8 13  1  0
  1  2  2  0
 13 14  1  0
  2  7  1  0
 12 15  1  0
  3  4  2  0
 19 26  1  0
 15 16  1  0
  7  8  1  0
 14 17  2  0
 17 18  1  0
  7  9  2  0
 18 26  2  0
  4  5  1  0
  4 10  1  0
 19 20  2  0
 20 14  1  0
  2  3  1  0
 16 21  2  0
 10 11  2  0
 18 27  1  0
 21 22  1  0
 26 28  1  0
  5  6  2  0
 19 29  1  0
 22 23  2  0
 24 30  1  0
 10 12  1  0
 23 31  1  0
 23 24  1  0
 22 32  1  0
M  END
>  <ID_NEW>
CPDMM2379

>  <pIC50>
4.0

$$$$

  SciTegic12180812312D

 42 44  0  0  0  0            999 V2000
    5.6124   -0.9557    0.0000 N   0  0
    5.9385   -0.7716    0.0000 C   0  0
    5.9388   -0.3945    0.0000 O   0  0
    6.2602   -0.9563    0.0000 O   0  0
    6.5864   -0.7721    0.0000 C   0  0
    6.9123   -0.9568    0.0000 C   0  0
    6.5867   -0.3950    0.0000 C   0  0
    6.6843   -1.1342    0.0000 C   0  0
    5.2898   -0.7653    0.0000 C   0  0
    0.3759   -0.9655    0.0000 N   0  0
    0.0426   -0.7787    0.0000 C   0  0
    0.0428   -0.3972    0.0000 O   0  0
   -0.2749   -0.9644    0.0000 O   0  0
   -0.6043   -0.7777    0.0000 C   0  0
   -0.9402   -0.5884    0.0000 C   0  0
   -0.4205   -0.4470    0.0000 C   0  0
   -0.7963   -1.1039    0.0000 C   0  0
    0.7044   -0.7726    0.0000 C   0  0
    2.6777   -0.7708    0.0000 N   0  0
    2.6765   -1.1440    0.0000 C   0  0
    3.0038   -1.3318    0.0000 C   0  0
    3.3369   -1.1435    0.0000 C   0  0
    3.3340   -0.7714    0.0000 N   0  0
    3.0020   -0.5829    0.0000 C   0  0
    2.3492   -1.3350    0.0000 C   0  0
    2.0227   -1.1469    0.0000 N   0  0
    2.3527   -1.7142    0.0000 O   0  0
    3.6686   -1.3257    0.0000 C   0  0
    3.6741   -1.7090    0.0000 O   0  0
    3.9909   -1.1411    0.0000 N   0  0
    1.6953   -1.3381    0.0000 C   0  0
    1.3603   -1.1500    0.0000 C   0  0
    1.3615   -0.7741    0.0000 C   0  0
    1.0357   -0.5818    0.0000 C   0  0
    0.7053   -1.1565    0.0000 C   0  0
    1.0359   -1.3449    0.0000 C   0  0
    4.3173   -1.3258    0.0000 C   0  0
    4.6437   -1.1413    0.0000 C   0  0
    4.9634   -1.3275    0.0000 C   0  0
    5.2895   -1.1433    0.0000 C   0  0
    4.9608   -0.5765    0.0000 C   0  0
    4.6404   -0.7662    0.0000 C   0  0
 10 11  1  0
 11 12  2  0
 11 13  1  0
 13 14  1  0
 14 15  1  0
 14 16  1  0
 14 17  1  0
 18 10  1  0
  1  9  1  0
  1  2  1  0
  2  3  2  0
  2  4  1  0
  4  5  1  0
  5  6  1  0
  5  7  1  0
  5  8  1  0
 28 30  1  0
 24 19  1  0
 26 31  1  0
 19 20  2  0
 31 32  1  0
 20 25  1  0
 21 22  2  0
 30 37  1  0
 35 18  1  0
 37 38  1  0
 25 26  1  0
 38 39  2  0
 32 33  2  0
 39 40  1  0
 33 34  1  0
 40  9  2  0
 25 27  2  0
  9 41  1  0
 34 18  2  0
 41 42  2  0
 42 38  1  0
 22 23  1  0
 22 28  1  0
 35 36  2  0
 36 32  1  0
 20 21  1  0
 28 29  2  0
 23 24  2  0
M  END
>  <ID_NEW>
CPDMM2380

>  <pIC50>
4.0

$$$$

  SciTegic12180812322D

 28 30  0  0  0  0            999 V2000
    1.9124    1.9318    0.0000 N   0  0
    1.4314    2.2097    0.0000 C   0  0
   -5.8158    1.9178    0.0000 N   0  0
   -5.3331    2.1982    0.0000 C   0  0
   -2.4181    2.2000    0.0000 N   0  0
   -2.4193    1.6518    0.0000 C   0  0
   -1.9379    1.3765    0.0000 C   0  0
   -1.4422    1.6523    0.0000 C   0  0
   -1.4451    2.1994    0.0000 N   0  0
   -1.9397    2.4837    0.0000 C   0  0
   -2.9050    1.3691    0.0000 C   0  0
   -3.3856    1.6447    0.0000 N   0  0
   -2.8973    0.8108    0.0000 O   0  0
   -0.9606    1.3826    0.0000 C   0  0
   -0.9467    0.8160    0.0000 O   0  0
   -0.4799    1.6589    0.0000 N   0  0
   -3.8714    1.3660    0.0000 C   0  0
   -4.3606    1.6416    0.0000 C   0  0
   -4.3594    2.1967    0.0000 C   0  0
   -4.8435    2.4848    0.0000 C   0  0
   -5.3322    1.6351    0.0000 C   0  0
   -4.8433    1.3551    0.0000 C   0  0
    0.0048    1.3825    0.0000 C   0  0
    0.4813    1.6587    0.0000 C   0  0
    0.9551    1.3808    0.0000 C   0  0
    1.4311    1.6525    0.0000 C   0  0
    0.9525    2.4901    0.0000 C   0  0
    0.4779    2.2088    0.0000 C   0  0
  4  3  1  0
  1  2  1  0
 14 16  1  0
 10  5  1  0
 12 17  1  0
  5  6  2  0
 17 18  1  0
  6 11  1  0
  7  8  2  0
 16 23  1  0
 21  4  1  0
 23 24  1  0
 11 12  1  0
 24 25  2  0
 18 19  2  0
 25 26  1  0
 19 20  1  0
 26  2  2  0
 11 13  2  0
  2 27  1  0
 20  4  2  0
 27 28  2  0
 28 24  1  0
  8  9  1  0
  8 14  1  0
 21 22  2  0
 22 18  1  0
  6  7  1  0
 14 15  2  0
  9 10  2  0
M  END
>  <ID_NEW>
CPDMM2381

>  <pIC50>
4.0

$$$$

  SciTegic12180812322D

 32 36  0  0  0  0            999 V2000
    5.5815   -0.0111    0.0000 C   0  0
   -4.4831   -0.0851    0.0000 C   0  0
   -0.1598   -0.0291    0.0000 N   0  0
   -0.1526   -0.8566    0.0000 C   0  0
    0.5663   -1.2693    0.0000 C   0  0
    1.2787   -0.8561    0.0000 C   0  0
    1.2675   -0.0255    0.0000 C   0  0
    0.5561    0.3837    0.0000 C   0  0
   -0.8717   -1.2808    0.0000 C   0  0
   -1.5980   -0.8720    0.0000 N   0  0
   -0.8598   -2.1101    0.0000 O   0  0
    1.9978   -1.2632    0.0000 C   0  0
    2.0075   -2.0923    0.0000 O   0  0
    2.7118   -0.8495    0.0000 N   0  0
   -2.3089   -1.2923    0.0000 C   0  0
   -3.0356   -0.8876    0.0000 C   0  0
   -3.0469   -0.0616    0.0000 C   0  0
   -3.7643    0.3473    0.0000 C   0  0
   -4.4697   -0.9107    0.0000 C   0  0
   -3.7474   -1.3157    0.0000 C   0  0
    3.4298   -1.2591    0.0000 C   0  0
    4.1521   -0.8413    0.0000 C   0  0
    4.8676   -1.2525    0.0000 C   0  0
    5.5812   -0.8392    0.0000 C   0  0
    4.8692    0.4026    0.0000 C   0  0
    4.1529   -0.0120    0.0000 C   0  0
    5.0427    1.2117    0.0000 C   0  0
    6.1984    0.5494    0.0000 O   0  0
    5.8642    1.2905    0.0000 C   0  0
   -3.9529    1.1528    0.0000 C   0  0
   -5.1010    0.4614    0.0000 O   0  0
   -4.7693    1.2228    0.0000 C   0  0
  5  6  2  0
 14 21  1  0
 19  2  1  0
 21 22  1  0
  9 10  1  0
 22 23  2  0
 16 17  2  0
 23 24  1  0
 17 18  1  0
 24  1  2  0
  9 11  2  0
  1 25  1  0
 18  2  2  0
 25 26  2  0
 26 22  1  0
  6  7  1  0
  6 12  1  0
 19 20  2  0
 20 16  1  0
  4  5  1  0
 12 13  2  0
  7  8  2  0
 12 14  1  0
 25 27  1  0
  8  3  1  0
  1 28  1  0
 10 15  1  0
 27 29  1  0
 29 28  1  0
  3  4  2  0
 18 30  1  0
 15 16  1  0
  2 31  1  0
  4  9  1  0
 30 32  1  0
 32 31  1  0
M  END
>  <ID_NEW>
CPDMM2382

>  <pIC50>
4.0

$$$$

  SciTegic12180812322D

 28 30  0  0  0  0            999 V2000
   -2.4182    2.1417    0.0000 N   0  0
   -2.4194    1.5851    0.0000 C   0  0
   -1.9379    1.3098    0.0000 C   0  0
   -1.4464    1.5856    0.0000 C   0  0
   -1.4493    2.1369    0.0000 N   0  0
   -1.9397    2.4171    0.0000 C   0  0
   -2.9008    1.3067    0.0000 C   0  0
   -3.3856    1.5864    0.0000 N   0  0
   -2.8973    0.7525    0.0000 O   0  0
   -0.9564    1.3200    0.0000 C   0  0
   -0.9468    0.7534    0.0000 O   0  0
   -0.4758    1.5964    0.0000 N   0  0
   -3.8714    1.2994    0.0000 C   0  0
   -4.3647    1.5749    0.0000 C   0  0
   -4.3635    2.1342    0.0000 C   0  0
   -4.8434    2.4182    0.0000 C   0  0
   -5.3322    1.5726    0.0000 C   0  0
   -4.8432    1.2967    0.0000 C   0  0
   -5.3332    2.1291    0.0000 C   0  0
   -5.8160    1.2863    0.0000 N   0  0
    0.0006    1.3199    0.0000 C   0  0
    0.4812    1.5962    0.0000 C   0  0
    0.9550    1.3182    0.0000 C   0  0
    1.4395    1.5858    0.0000 C   0  0
    1.4398    2.1472    0.0000 C   0  0
    0.9524    2.4235    0.0000 C   0  0
    0.4779    2.1463    0.0000 C   0  0
    1.9112    1.3177    0.0000 N   0  0
 10 12  1  0
  6  1  1  0
  8 13  1  0
  1  2  2  0
 13 14  1  0
  2  7  1  0
  3  4  2  0
 12 21  1  0
 17 19  1  0
 21 22  1  0
  7  8  1  0
 22 23  2  0
 14 15  2  0
 23 24  1  0
 15 16  1  0
 24 25  2  0
  7  9  2  0
 25 26  1  0
 16 19  2  0
 26 27  2  0
 27 22  1  0
  4  5  1  0
 24 28  1  0
  4 10  1  0
 17 18  2  0
 18 14  1  0
  2  3  1  0
 10 11  2  0
 17 20  1  0
  5  6  2  0
M  END
>  <ID_NEW>
CPDMM2383

>  <pIC50>
4.0

$$$$

  SciTegic12180812322D

 35 37  0  0  0  0            999 V2000
    3.2857    1.4347    0.0000 C   0  0
   -2.1747    1.4232    0.0000 C   0  0
    0.1736    1.4250    0.0000 N   0  0
    0.1724    0.9810    0.0000 C   0  0
    0.5663    0.7598    0.0000 C   0  0
    0.9619    0.9815    0.0000 C   0  0
    0.9590    1.4244    0.0000 N   0  0
    0.5645    1.6504    0.0000 C   0  0
   -0.2174    0.7566    0.0000 C   0  0
   -0.6023    0.9781    0.0000 N   0  0
   -0.2139    0.3066    0.0000 O   0  0
    1.3561    0.7659    0.0000 C   0  0
    1.3616    0.3118    0.0000 O   0  0
    1.7368    0.9880    0.0000 N   0  0
   -0.9963    0.7535    0.0000 C   0  0
   -1.3938    0.9750    0.0000 C   0  0
   -1.3926    1.4217    0.0000 C   0  0
   -1.7809    1.6515    0.0000 C   0  0
   -2.1738    0.9685    0.0000 C   0  0
   -1.7807    0.7426    0.0000 C   0  0
    2.1298    0.7658    0.0000 C   0  0
    2.5146    0.9878    0.0000 C   0  0
    2.8968    0.7641    0.0000 C   0  0
    3.2854    0.9817    0.0000 C   0  0
    2.8942    1.6568    0.0000 C   0  0
    2.5113    1.4338    0.0000 C   0  0
    3.6708    1.6625    0.0000 N   0  0
   -2.5690    1.6498    0.0000 N   0  0
   -2.9624    1.4217    0.0000 C   0  0
   -3.3566    1.6483    0.0000 O   0  0
   -2.9615    0.9670    0.0000 O   0  0
   -3.7500    1.4202    0.0000 C   0  0
   -4.1442    1.6469    0.0000 C   0  0
   -3.7491    0.9655    0.0000 C   0  0
   -4.1458    1.1958    0.0000 C   0  0
 19  2  1  0
 21 22  1  0
  9 10  1  0
 22 23  2  0
 16 17  2  0
 23 24  1  0
 17 18  1  0
 24  1  2  0
  9 11  2  0
  1 25  1  0
 18  2  2  0
 25 26  2  0
 26 22  1  0
  6  7  1  0
  6 12  1  0
 19 20  2  0
 20 16  1  0
  4  5  1  0
 12 13  2  0
  7  8  2  0
  1 27  1  0
 12 14  1  0
  2 28  1  0
  8  3  1  0
 28 29  1  0
 10 15  1  0
 29 30  1  0
  3  4  2  0
 29 31  2  0
 15 16  1  0
 30 32  1  0
  4  9  1  0
 32 33  1  0
  5  6  2  0
 32 34  1  0
 14 21  1  0
 32 35  1  0
M  END
>  <ID_NEW>
CPDMM2384

>  <pIC50>
4.0

$$$$

  -MTS-   10172316422D 0   0.00000     0.00000     0

 26 28  0  0  1  0  0  0  0  0999 V2000
    5.8310   -2.7070    0.0000 N   0  0  0  0  0  0  0  0  0  0  0  0
    6.0210   -3.4290    0.0000 S   0  0  0  0  0  0  0  0  0  0  0  0
    6.2740   -2.0920    0.0000 C   0  0  2  0  0  0  0  0  0  0  0  0
    5.1080   -2.4750    0.0000 C   0  0  1  0  0  0  0  0  0  0  0  0
    5.8250   -1.4810    0.0000 C   0  0  0  0  0  0  0  0  0  0  0  0
    6.9710   -6.2540    0.0000 C   0  0  0  0  0  0  0  0  0  0  0  0
    6.2170   -4.1580    0.0000 C   0  0  0  0  0  0  0  0  0  0  0  0
    5.1040   -1.7160    0.0000 C   0  0  1  0  0  0  0  0  0  0  0  0
    5.2920   -3.6250    0.0000 O   0  0  0  0  0  0  0  0  0  0  0  0
    6.7500   -3.2330    0.0000 O   0  0  0  0  0  0  0  0  0  0  0  0
    6.6020   -5.6110    0.0000 C   0  0  0  0  0  0  0  0  0  0  0  0
    6.9410   -4.3500    0.0000 C   0  0  0  0  0  0  0  0  0  0  0  0
    5.6810   -4.6870    0.0000 C   0  0  0  0  0  0  0  0  0  0  0  0
    7.1350   -5.0760    0.0000 C   0  0  0  0  0  0  0  0  0  0  0  0
    5.8730   -5.4150    0.0000 C   0  0  0  0  0  0  0  0  0  0  0  0
    7.3420   -6.9040    0.0000 F   0  0  0  0  0  0  0  0  0  0  0  0
    7.7210   -6.2540    0.0000 F   0  0  0  0  0  0  0  0  0  0  0  0
    6.4370   -6.7870    0.0000 F   0  0  0  0  0  0  0  0  0  0  0  0
    4.3960   -2.7080    0.0000 C   0  0  0  0  0  0  0  0  0  0  0  0
    4.3890   -1.4900    0.0000 C   0  0  0  0  0  0  0  0  0  0  0  0
    3.9450   -2.1020    0.0000 C   0  0  0  0  0  0  0  0  0  0  0  0
    7.0210   -2.0920    0.0000 C   0  0  0  0  0  0  0  0  0  0  0  0
    7.3970   -1.4420    0.0000 O   0  0  0  0  0  0  0  0  0  0  0  0
    7.3980   -2.7400    0.0000 O   0  0  0  0  0  0  0  0  0  0  0  0
    5.1000   -0.7160    0.0000 H   0  0  0  0  0  0  0  0  0  0  0  0
    5.1110   -3.4750    0.0000 H   0  0  0  0  0  0  0  0  0  0  0  0
  2  7  1  0  0  0  0
  7 13  2  0  0  0  0
 13 15  1  0  0  0  0
 15 11  2  0  0  0  0
 11 14  1  0  0  0  0
 14 12  2  0  0  0  0
 12  7  1  0  0  0  0
 11  6  1  0  0  0  0
  6 18  1  0  0  0  0
  6 16  1  0  0  0  0
  6 17  1  0  0  0  0
  8 20  1  0  0  0  0
 20 21  1  0  0  0  0
 21 19  1  0  0  0  0
 19  4  1  0  0  0  0
  8  4  1  0  0  0  0
  4  1  1  0  0  0  0
  1  3  1  0  0  0  0
  3  5  1  0  0  0  0
  5  8  1  0  0  0  0
  3 22  1  6  0  0  0
  1  2  1  0  0  0  0
  2  9  2  0  0  0  0
  2 10  2  0  0  0  0
 22 24  1  0  0  0  0
 22 23  2  0  0  0  0
  8 25  1  1  0  0  0
  4 26  1  1  0  0  0
M  END
>  <ID_NEW>
CPDMM2385

>  <pIC50>
4.0

$$$$

  -MTS-   10172316422D 0   0.00000     0.00000     0

 27 29  0  0  0  0  0  0  0  0999 V2000
    5.6980   -2.4280    0.0000 N   0  0  0  0  0  0  0  0  0  0  0  0
    5.8920   -3.1540    0.0000 S   0  0  0  0  0  0  0  0  0  0  0  0
    6.1410   -1.8170    0.0000 C   0  0  2  0  0  0  0  0  0  0  0  0
    4.9790   -2.2000    0.0000 C   0  0  1  0  0  0  0  0  0  0  0  0
    5.6960   -1.2060    0.0000 C   0  0  0  0  0  0  0  0  0  0  0  0
    7.3080   -6.4290    0.0000 C   0  0  0  0  0  0  0  0  0  0  0  0
    6.0830   -3.8790    0.0000 C   0  0  0  0  0  0  0  0  0  0  0  0
    4.9750   -1.4410    0.0000 C   0  0  1  0  0  0  0  0  0  0  0  0
    5.1580   -3.3500    0.0000 O   0  0  0  0  0  0  0  0  0  0  0  0
    6.6170   -2.9580    0.0000 O   0  0  0  0  0  0  0  0  0  0  0  0
    6.6580   -6.0540    0.0000 O   0  0  0  0  0  0  0  0  0  0  0  0
    5.5480   -4.4120    0.0000 C   0  0  0  0  0  0  0  0  0  0  0  0
    6.8080   -4.0750    0.0000 C   0  0  0  0  0  0  0  0  0  0  0  0
    7.9540   -6.8040    0.0000 F   0  0  0  0  0  0  0  0  0  0  0  0
    7.8370   -5.8960    0.0000 F   0  0  0  0  0  0  0  0  0  0  0  0
    7.3040   -7.1790    0.0000 F   0  0  0  0  0  0  0  0  0  0  0  0
    6.4680   -5.3360    0.0000 C   0  0  0  0  0  0  0  0  0  0  0  0
    5.7390   -5.1360    0.0000 C   0  0  0  0  0  0  0  0  0  0  0  0
    7.0020   -4.7970    0.0000 C   0  0  0  0  0  0  0  0  0  0  0  0
    4.2620   -2.4290    0.0000 C   0  0  0  0  0  0  0  0  0  0  0  0
    4.2560   -1.2110    0.0000 C   0  0  0  0  0  0  0  0  0  0  0  0
    3.8160   -1.8270    0.0000 C   0  0  0  0  0  0  0  0  0  0  0  0
    6.8920   -1.8170    0.0000 C   0  0  0  0  0  0  0  0  0  0  0  0
    7.2680   -1.1670    0.0000 O   0  0  0  0  0  0  0  0  0  0  0  0
    7.2690   -2.4610    0.0000 O   0  0  0  0  0  0  0  0  0  0  0  0
    4.9720   -0.4410    0.0000 H   0  0  0  0  0  0  0  0  0  0  0  0
    4.9800   -3.2000    0.0000 H   0  0  0  0  0  0  0  0  0  0  0  0
  7 12  2  0  0  0  0
 12 18  1  0  0  0  0
 18 17  2  0  0  0  0
 17 19  1  0  0  0  0
 19 13  2  0  0  0  0
 13  7  1  0  0  0  0
 17 11  1  0  0  0  0
 11  6  1  0  0  0  0
  6 16  1  0  0  0  0
  6 14  1  0  0  0  0
  6 15  1  0  0  0  0
  8 21  1  0  0  0  0
 21 22  1  0  0  0  0
 22 20  1  0  0  0  0
 20  4  1  0  0  0  0
  8  4  1  0  0  0  0
  4  1  1  0  0  0  0
  1  3  1  0  0  0  0
  3  5  1  0  0  0  0
  5  8  1  0  0  0  0
  3 23  1  6  0  0  0
  1  2  1  0  0  0  0
  2  9  2  0  0  0  0
  2 10  2  0  0  0  0
  2  7  1  0  0  0  0
 23 25  1  0  0  0  0
 23 24  2  0  0  0  0
  8 26  1  1  0  0  0
  4 27  1  1  0  0  0
V    3 M1
V    4 M1
V    8 M1
M  END
>  <ID_NEW>
CPDMM2386

>  <pIC50>
4.0

$$$$

  -MTS-   10172316422D 0   0.00000     0.00000     0

 24 26  0  0  1  0  0  0  0  0999 V2000
    5.8310   -2.6280    0.0000 N   0  0  0  0  0  0  0  0  0  0  0  0
    6.0210   -3.3500    0.0000 S   0  0  0  0  0  0  0  0  0  0  0  0
    6.2740   -2.0170    0.0000 C   0  0  2  0  0  0  0  0  0  0  0  0
    5.1080   -2.3960    0.0000 C   0  0  1  0  0  0  0  0  0  0  0  0
    5.8250   -1.4020    0.0000 C   0  0  0  0  0  0  0  0  0  0  0  0
    6.2170   -4.0790    0.0000 C   0  0  0  0  0  0  0  0  0  0  0  0
    5.1040   -1.6410    0.0000 C   0  0  1  0  0  0  0  0  0  0  0  0
    6.7500   -3.1540    0.0000 O   0  0  0  0  0  0  0  0  0  0  0  0
    5.2920   -3.5500    0.0000 O   0  0  0  0  0  0  0  0  0  0  0  0
    5.6810   -4.6080    0.0000 C   0  0  0  0  0  0  0  0  0  0  0  0
    6.9410   -4.2710    0.0000 C   0  0  0  0  0  0  0  0  0  0  0  0
    6.6020   -5.5320    0.0000 C   0  0  0  0  0  0  0  0  0  0  0  0
    7.1350   -4.9970    0.0000 C   0  0  0  0  0  0  0  0  0  0  0  0
    5.8730   -5.3360    0.0000 C   0  0  0  0  0  0  0  0  0  0  0  0
    4.3960   -2.6290    0.0000 C   0  0  0  0  0  0  0  0  0  0  0  0
    4.3890   -1.4110    0.0000 C   0  0  0  0  0  0  0  0  0  0  0  0
    3.9450   -2.0230    0.0000 C   0  0  0  0  0  0  0  0  0  0  0  0
    7.0210   -2.0170    0.0000 C   0  0  0  0  0  0  0  0  0  0  0  0
    7.3970   -1.3630    0.0000 O   0  0  0  0  0  0  0  0  0  0  0  0
    7.3980   -2.6610    0.0000 O   0  0  0  0  0  0  0  0  0  0  0  0
    6.9820   -6.9760    0.0000 N   0  0  0  0  0  0  0  0  0  0  0  0
    6.7920   -6.2540    0.0000 C   0  0  0  0  0  0  0  0  0  0  0  0
    5.1000   -0.6410    0.0000 H   0  0  0  0  0  0  0  0  0  0  0  0
    5.1110   -3.3960    0.0000 H   0  0  0  0  0  0  0  0  0  0  0  0
  1  3  1  0  0  0  0
  3  5  1  0  0  0  0
  5  7  1  0  0  0  0
  3 18  1  6  0  0  0
  1  2  1  0  0  0  0
  2  9  2  0  0  0  0
  2  8  2  0  0  0  0
  2  6  1  0  0  0  0
  6 10  2  0  0  0  0
 10 14  1  0  0  0  0
 14 12  2  0  0  0  0
 12 13  1  0  0  0  0
 13 11  2  0  0  0  0
 11  6  1  0  0  0  0
 12 22  1  0  0  0  0
  7 16  1  0  0  0  0
 16 17  1  0  0  0  0
 17 15  1  0  0  0  0
 15  4  1  0  0  0  0
 18 20  1  0  0  0  0
 18 19  2  0  0  0  0
  7  4  1  0  0  0  0
  4  1  1  0  0  0  0
 22 21  3  0  0  0  0
  7 23  1  1  0  0  0
  4 24  1  1  0  0  0
M  END
>  <ID_NEW>
CPDMM2387

>  <pIC50>
4.0

$$$$

  -MTS-   10172316422D 0   0.00000     0.00000     0

 24 26  0  0  1  0  0  0  0  0999 V2000
    5.8310   -2.8030    0.0000 N   0  0  0  0  0  0  0  0  0  0  0  0
    6.0210   -3.5290    0.0000 S   0  0  0  0  0  0  0  0  0  0  0  0
    6.2740   -2.1920    0.0000 C   0  0  2  0  0  0  0  0  0  0  0  0
    5.1080   -2.5750    0.0000 C   0  0  1  0  0  0  0  0  0  0  0  0
    5.8250   -1.5810    0.0000 C   0  0  0  0  0  0  0  0  0  0  0  0
    6.2170   -4.2540    0.0000 C   0  0  0  0  0  0  0  0  0  0  0  0
    5.1040   -1.8160    0.0000 C   0  0  1  0  0  0  0  0  0  0  0  0
    6.7500   -3.3330    0.0000 O   0  0  0  0  0  0  0  0  0  0  0  0
    5.2920   -3.7250    0.0000 O   0  0  0  0  0  0  0  0  0  0  0  0
    5.6810   -4.7870    0.0000 C   0  0  0  0  0  0  0  0  0  0  0  0
    6.9410   -4.4500    0.0000 C   0  0  0  0  0  0  0  0  0  0  0  0
    7.1350   -5.1720    0.0000 C   0  0  0  0  0  0  0  0  0  0  0  0
    5.8730   -5.5110    0.0000 C   0  0  0  0  0  0  0  0  0  0  0  0
    6.6020   -5.7110    0.0000 C   0  0  0  0  0  0  0  0  0  0  0  0
    4.3960   -2.8040    0.0000 C   0  0  0  0  0  0  0  0  0  0  0  0
    7.4370   -6.8040    0.0000 Br  0  0  0  0  0  0  0  0  0  0  0  0
    4.3890   -1.5860    0.0000 C   0  0  0  0  0  0  0  0  0  0  0  0
    3.9450   -2.2020    0.0000 C   0  0  0  0  0  0  0  0  0  0  0  0
    6.7920   -6.4290    0.0000 C   0  0  0  0  0  0  0  0  0  0  0  0
    7.0210   -2.1920    0.0000 C   0  0  0  0  0  0  0  0  0  0  0  0
    7.3970   -1.5420    0.0000 O   0  0  0  0  0  0  0  0  0  0  0  0
    7.3980   -2.8360    0.0000 O   0  0  0  0  0  0  0  0  0  0  0  0
    5.1020   -0.8160    0.0000 H   0  0  0  0  0  0  0  0  0  0  0  0
    5.1110   -3.5750    0.0000 H   0  0  0  0  0  0  0  0  0  0  0  0
  2  6  1  0  0  0  0
  6 10  2  0  0  0  0
 10 13  1  0  0  0  0
 13 14  2  0  0  0  0
 14 12  1  0  0  0  0
 12 11  2  0  0  0  0
 11  6  1  0  0  0  0
 14 19  1  0  0  0  0
 19 16  1  0  0  0  0
  7 17  1  0  0  0  0
 17 18  1  0  0  0  0
 18 15  1  0  0  0  0
 15  4  1  0  0  0  0
  7  4  1  0  0  0  0
  4  1  1  0  0  0  0
  1  3  1  0  0  0  0
  3  5  1  0  0  0  0
  5  7  1  0  0  0  0
  3 20  1  6  0  0  0
  1  2  1  0  0  0  0
  2  9  2  0  0  0  0
  2  8  2  0  0  0  0
 20 22  1  0  0  0  0
 20 21  2  0  0  0  0
  7 23  1  1  0  0  0
  4 24  1  1  0  0  0
M  END
>  <ID_NEW>
CPDMM2388

>  <pIC50>
4.0

$$$$

  SciTegic12180812312D

 30 32  0  0  0  0            999 V2000
   -2.2311    1.8782    0.0000 N   0  0
   -2.2099    1.3848    0.0000 C   0  0
   -1.6988    1.1533    0.0000 C   0  0
   -1.2088    1.4266    0.0000 C   0  0
   -1.2258    1.9191    0.0000 N   0  0
   -1.7373    2.1511    0.0000 C   0  0
   -0.7294    1.1518    0.0000 C   0  0
   -0.7244    0.5976    0.0000 O   0  0
   -0.2508    1.4269    0.0000 N   0  0
   -2.6652    1.0825    0.0000 C   0  0
   -3.1604    1.3242    0.0000 N   0  0
   -2.6294    0.5304    0.0000 O   0  0
   -3.6199    1.0094    0.0000 C   0  0
    0.2246    1.1520    0.0000 C   0  0
    0.7032    1.4313    0.0000 C   0  0
   -4.1152    1.2552    0.0000 C   0  0
   -4.1508    1.8100    0.0000 C   0  0
   -4.6410    2.0475    0.0000 C   0  0
   -5.1056    1.7410    0.0000 C   0  0
   -5.0627    1.1846    0.0000 C   0  0
   -4.5680    0.9426    0.0000 C   0  0
    1.1768    1.1595    0.0000 C   0  0
    1.1660    2.2637    0.0000 C   0  0
    0.6990    1.9827    0.0000 C   0  0
    1.6504    1.9932    0.0000 C   0  0
    1.6500    1.4390    0.0000 C   0  0
   -5.5932    1.9816    0.0000 F   0  0
   -5.5165    0.8759    0.0000 C   0  0
    2.1280    1.1677    0.0000 O   0  0
    2.1366    0.6174    0.0000 C   0  0
 13 16  1  0
  7  8  2  0
 16 17  2  0
  1  2  2  0
 17 18  1  0
  7  9  1  0
 18 19  2  0
  3  4  2  0
 19 20  1  0
  2 10  1  0
 20 21  2  0
 21 16  1  0
  6  1  1  0
 15 22  2  0
 22 26  1  0
 10 11  1  0
 25 23  1  0
  4  5  1  0
 23 24  2  0
 24 15  1  0
 25 26  2  0
 10 12  2  0
  5  6  2  0
 11 13  1  0
  9 14  1  0
  4  7  1  0
 19 27  1  0
 14 15  1  0
 20 28  1  0
 26 29  1  0
  2  3  1  0
 29 30  1  0
M  END
>  <ID_NEW>
CPDMM2389

>  <pIC50>
4.0

$$$$

  SciTegic12180812272D

 28 30  0  0  0  0            999 V2000
   -2.3926    2.7499    0.0000 N   0  0
   -2.3721    2.2698    0.0000 C   0  0
   -1.9155    2.0572    0.0000 C   0  0
   -1.4704    2.3067    0.0000 C   0  0
   -1.4912    2.7862    0.0000 N   0  0
   -1.9525    3.0034    0.0000 C   0  0
   -1.0077    2.0876    0.0000 C   0  0
   -0.9845    1.6137    0.0000 O   0  0
   -0.5652    2.3413    0.0000 N   0  0
   -2.8126    2.0153    0.0000 C   0  0
   -3.2732    2.2323    0.0000 N   0  0
   -2.7999    1.5371    0.0000 O   0  0
   -3.2901    2.7103    0.0000 C   0  0
   -3.7587    2.9314    0.0000 C   0  0
   -3.7779    3.4124    0.0000 C   0  0
   -4.2372    3.6324    0.0000 C   0  0
   -4.6739    3.3812    0.0000 C   0  0
   -4.6617    2.8945    0.0000 C   0  0
   -4.1979    2.6814    0.0000 C   0  0
   -5.1328    3.6189    0.0000 F   0  0
   -0.5565    2.8454    0.0000 C   0  0
   -0.1231    3.0915    0.0000 C   0  0
    0.3042    2.8374    0.0000 C   0  0
    0.7371    3.0828    0.0000 C   0  0
    0.7421    3.5878    0.0000 C   0  0
    0.3081    3.8374    0.0000 C   0  0
   -0.1218    3.5896    0.0000 C   0  0
    1.1640    2.8313    0.0000 Cl  0  0
  4  7  1  0
 11 13  1  0
  7  8  2  0
  7  9  1  0
 13 14  1  0
 14 15  2  0
 19 14  1  0
 15 16  1  0
 18 19  2  0
 16 17  2  0
 17 20  1  0
  5  6  2  0
 17 18  1  0
  9 21  1  0
  2  3  1  0
 21 22  1  0
  2 10  1  0
 22 23  2  0
  1  2  2  0
 23 24  1  0
  3  4  2  0
 24 25  2  0
 10 11  1  0
 25 26  1  0
 10 12  2  0
 26 27  2  0
 27 22  1  0
  6  1  1  0
  4  5  1  0
 24 28  1  0
M  END
>  <ID_NEW>
CPDMM2390

>  <pIC50>
4.0

$$$$

  SciTegic12180812312D

 31 34  0  0  0  0            999 V2000
   -2.0388    1.8541    0.0000 N   0  0
   -2.0221    1.3232    0.0000 C   0  0
   -1.5592    1.0701    0.0000 C   0  0
   -1.1043    1.3510    0.0000 C   0  0
   -1.1250    1.8935    0.0000 N   0  0
   -1.5923    2.1345    0.0000 C   0  0
   -0.6368    1.1041    0.0000 C   0  0
   -0.6213    0.5797    0.0000 O   0  0
   -0.1930    1.3942    0.0000 N   0  0
    0.2745    1.1431    0.0000 C   0  0
    0.7182    1.4246    0.0000 C   0  0
   -2.4718    1.0403    0.0000 C   0  0
   -2.9333    1.2860    0.0000 N   0  0
   -2.4556    0.5116    0.0000 O   0  0
   -3.3873    1.0115    0.0000 C   0  0
   -3.8490    1.2572    0.0000 C   0  0
   -3.8614    1.7817    0.0000 C   0  0
   -4.3306    2.0400    0.0000 C   0  0
   -4.2927    0.9822    0.0000 C   0  0
    1.1843    1.1736    0.0000 C   0  0
    1.6317    1.4630    0.0000 C   0  0
    1.6126    1.9882    0.0000 C   0  0
    1.1401    2.2348    0.0000 C   0  0
    0.6998    1.9474    0.0000 C   0  0
    2.0990    1.2157    0.0000 Cl  0  0
   -4.7581    1.2241    0.0000 C   0  0
   -4.7741    1.7511    0.0000 C   0  0
   -5.2901    1.9059    0.0000 O   0  0
   -5.5848    1.4627    0.0000 C   0  0
   -5.2566    1.0403    0.0000 C   0  0
    2.0569    2.2661    0.0000 F   0  0
 13 15  1  0
  2  3  1  0
 15 16  1  0
  7  8  2  0
 16 17  2  0
  1  2  2  0
 17 18  1  0
 18 27  2  0
  7  9  1  0
 26 19  2  0
 19 16  1  0
  3  4  2  0
 11 20  2  0
  9 10  1  0
 20 21  1  0
  6  1  1  0
 21 22  2  0
 10 11  1  0
 22 23  1  0
  4  5  1  0
 23 24  2  0
 24 11  1  0
  2 12  1  0
 21 25  1  0
 26 27  1  0
  5  6  2  0
 12 13  1  0
 12 14  2  0
  4  7  1  0
 27 28  1  0
 28 29  1  0
 29 30  1  0
 30 26  1  0
 22 31  1  0
M  END
>  <ID_NEW>
CPDMM2391

>  <pIC50>
4.0

$$$$

  SciTegic12180812282D

 30 32  0  0  0  0            999 V2000
   -1.7128    2.8449    0.0000 N   0  0
   -1.6942    2.3182    0.0000 C   0  0
   -1.2264    2.0710    0.0000 C   0  0
   -0.7806    2.3577    0.0000 C   0  0
   -0.8034    2.8835    0.0000 N   0  0
   -1.2676    3.1269    0.0000 C   0  0
   -0.3156    2.1121    0.0000 C   0  0
   -0.2904    1.5837    0.0000 N   0  0
    0.1315    2.3950    0.0000 O   0  0
   -2.1395    2.0391    0.0000 C   0  0
   -2.6025    2.2823    0.0000 N   0  0
   -2.1162    1.5105    0.0000 O   0  0
    0.1735    1.3381    0.0000 C   0  0
   -2.6258    2.8109    0.0000 C   0  0
   -3.0887    3.0542    0.0000 C   0  0
   -3.1098    3.5853    0.0000 C   0  0
   -3.5761    3.8274    0.0000 C   0  0
   -4.0218    3.5474    0.0000 C   0  0
   -3.9956    3.0190    0.0000 C   0  0
   -3.5367    2.7751    0.0000 C   0  0
   -4.4380    2.7394    0.0000 Cl  0  0
   -4.4866    3.7914    0.0000 F   0  0
    0.6646    0.5697    0.0000 C   0  0
    0.1987    0.8128    0.0000 C   0  0
   -0.2527    0.5292    0.0000 C   0  0
   -0.2270    0.0027    0.0000 C   0  0
    0.2435   -0.2381    0.0000 C   0  0
    0.6835    0.0436    0.0000 C   0  0
   -0.6730   -0.2776    0.0000 F   0  0
    0.2642   -0.7664    0.0000 F   0  0
  2  3  1  0
  2 10  1  0
  1  2  2  0
  3  4  2  0
 10 11  1  0
 10 12  2  0
  6  1  1  0
  4  5  1  0
  4  7  1  0
 11 14  1  0
  7  8  1  0
  7  9  2  0
 14 15  1  0
  8 13  1  0
 20 15  1  0
 15 16  2  0
 13 24  1  0
 19 20  2  0
 16 17  1  0
 18 19  1  0
 19 21  1  0
 18 22  1  0
  5  6  2  0
 17 18  2  0
 24 25  1  0
 27 28  2  0
 28 23  1  0
 23 24  2  0
 25 26  2  0
 26 29  1  0
 26 27  1  0
 27 30  1  0
M  END
>  <ID_NEW>
CPDMM2392

>  <pIC50>
4.0

$$$$

  SciTegic12180812312D

 30 33  0  0  0  0            999 V2000
   -2.0388    1.8791    0.0000 N   0  0
   -2.0221    1.3482    0.0000 C   0  0
   -1.5592    1.0951    0.0000 C   0  0
   -1.1043    1.3760    0.0000 C   0  0
   -1.1250    1.9185    0.0000 N   0  0
   -1.5923    2.1595    0.0000 C   0  0
   -0.6368    1.1291    0.0000 C   0  0
   -0.6213    0.6047    0.0000 O   0  0
   -0.1930    1.4192    0.0000 N   0  0
    0.2745    1.1681    0.0000 C   0  0
    0.7182    1.4496    0.0000 C   0  0
   -2.4718    1.0653    0.0000 C   0  0
   -2.9333    1.3110    0.0000 N   0  0
   -2.4556    0.5366    0.0000 O   0  0
   -3.3873    1.0323    0.0000 C   0  0
   -3.8490    1.2822    0.0000 C   0  0
   -3.8614    1.8067    0.0000 C   0  0
   -4.3306    2.0609    0.0000 C   0  0
   -4.2927    1.0072    0.0000 C   0  0
    1.1843    1.1986    0.0000 C   0  0
    1.6317    1.4880    0.0000 C   0  0
    1.6126    2.0091    0.0000 C   0  0
    1.1401    2.2598    0.0000 C   0  0
    0.6998    1.9724    0.0000 C   0  0
    2.0990    1.2407    0.0000 Cl  0  0
   -4.7581    1.2491    0.0000 C   0  0
   -4.7741    1.7761    0.0000 C   0  0
   -5.2901    1.9309    0.0000 O   0  0
   -5.5848    1.4877    0.0000 C   0  0
   -5.2566    1.0653    0.0000 C   0  0
 13 15  1  0
  2  3  1  0
 15 16  1  0
  7  8  2  0
 16 17  2  0
  1  2  2  0
 17 18  1  0
 18 27  2  0
  7  9  1  0
 26 19  2  0
 19 16  1  0
  3  4  2  0
 11 20  2  0
  9 10  1  0
 20 21  1  0
  6  1  1  0
 21 22  2  0
 10 11  1  0
 22 23  1  0
  4  5  1  0
 23 24  2  0
 24 11  1  0
  2 12  1  0
 21 25  1  0
 26 27  1  0
  5  6  2  0
 12 13  1  0
 12 14  2  0
  4  7  1  0
 27 28  1  0
 28 29  1  0
 29 30  1  0
 30 26  1  0
M  END
>  <ID_NEW>
CPDMM2393

>  <pIC50>
4.0

$$$$

  SciTegic12180812272D

 28 30  0  0  0  0            999 V2000
   -1.7451    2.6653    0.0000 N   0  0
   -1.7201    2.0603    0.0000 C   0  0
   -1.1348    1.7796    0.0000 C   0  0
   -0.5744    2.1065    0.0000 C   0  0
   -0.6042    2.7107    0.0000 N   0  0
   -1.1855    2.9919    0.0000 C   0  0
    0.0166    1.8277    0.0000 C   0  0
    0.0403    1.2208    0.0000 N   0  0
    0.5787    2.1462    0.0000 O   0  0
   -2.2800    1.7327    0.0000 C   0  0
   -2.8688    2.0136    0.0000 N   0  0
   -2.2585    1.1257    0.0000 O   0  0
    0.6299    0.9461    0.0000 C   0  0
   -2.8945    2.6204    0.0000 C   0  0
   -3.4791    2.9013    0.0000 C   0  0
   -3.5071    3.5111    0.0000 C   0  0
   -4.0948    3.7866    0.0000 C   0  0
   -4.6509    3.4623    0.0000 C   0  0
   -4.6215    2.8509    0.0000 C   0  0
   -4.0420    2.5740    0.0000 C   0  0
   -5.2254    3.7687    0.0000 F   0  0
    1.2641    0.0290    0.0000 C   0  0
    0.6834    0.3020    0.0000 C   0  0
    0.1534   -0.0659    0.0000 C   0  0
    0.2073   -0.7068    0.0000 C   0  0
    0.7960   -0.9777    0.0000 C   0  0
    1.3234   -0.6123    0.0000 C   0  0
   -0.3216   -1.0754    0.0000 C   0  0
  2  3  1  0
  2 10  1  0
  1  2  2  0
  3  4  2  0
 10 11  1  0
 10 12  2  0
  6  1  1  0
  4  5  1  0
  4  7  1  0
 11 14  1  0
  7  8  1  0
  7  9  2  0
 14 15  1  0
  8 13  1  0
 15 16  2  0
 20 15  1  0
 13 23  1  0
 16 17  1  0
 19 20  2  0
 17 18  2  0
 18 21  1  0
  5  6  2  0
 18 19  1  0
 25 26  1  0
 23 24  1  0
 26 27  2  0
 27 22  1  0
 22 23  2  0
 24 25  2  0
 25 28  1  0
M  END
>  <ID_NEW>
CPDMM2394

>  <pIC50>
4.0

$$$$

  SciTegic12180812312D

 31 34  0  0  0  0            999 V2000
   -2.3644    1.8574    0.0000 N   0  0
   -2.3432    1.3848    0.0000 C   0  0
   -1.8529    1.1658    0.0000 C   0  0
   -1.3838    1.4224    0.0000 C   0  0
   -1.4008    1.8983    0.0000 N   0  0
   -1.8914    2.1178    0.0000 C   0  0
   -0.9252    1.1601    0.0000 C   0  0
   -0.9202    0.6309    0.0000 O   0  0
   -0.4674    1.4269    0.0000 N   0  0
   -2.7818    1.0950    0.0000 C   0  0
   -3.2562    1.3242    0.0000 N   0  0
   -2.7460    0.5679    0.0000 O   0  0
   -3.6949    1.0261    0.0000 C   0  0
   -0.0129    1.1645    0.0000 C   0  0
    0.4449    1.4313    0.0000 C   0  0
   -4.1693    1.2594    0.0000 C   0  0
   -4.2008    1.7892    0.0000 C   0  0
   -4.6743    2.0183    0.0000 C   0  0
   -5.1140    1.7243    0.0000 C   0  0
   -5.0752    1.1929    0.0000 C   0  0
   -4.6013    0.9634    0.0000 C   0  0
    0.9018    1.1678    0.0000 C   0  0
    0.8910    2.2262    0.0000 C   0  0
    0.4407    1.9577    0.0000 C   0  0
    1.3504    1.9640    0.0000 C   0  0
    1.3542    1.4348    0.0000 C   0  0
    1.8568    1.2751    0.0000 C   0  0
    2.1637    1.7073    0.0000 C   0  0
    1.8547    2.1308    0.0000 O   0  0
   -5.5848    1.9566    0.0000 F   0  0
   -5.5123    0.8967    0.0000 C   0  0
  2  3  1  0
 13 16  1  0
  7  8  2  0
 16 17  2  0
  1  2  2  0
 17 18  1  0
  7  9  1  0
 18 19  2  0
  3  4  2  0
 19 20  1  0
  2 10  1  0
 20 21  2  0
 21 16  1  0
  6  1  1  0
 15 22  2  0
 22 26  1  0
 10 11  1  0
 25 23  1  0
  4  5  1  0
 23 24  2  0
 24 15  1  0
 25 26  2  0
 10 12  2  0
  5  6  2  0
 11 13  1  0
  9 14  1  0
 26 27  1  0
 27 28  1  0
 28 29  1  0
 29 25  1  0
  4  7  1  0
 19 30  1  0
 14 15  1  0
 20 31  1  0
M  END
>  <ID_NEW>
CPDMM2395

>  <pIC50>
4.0

$$$$

  SciTegic12180812312D

 30 33  0  0  0  0            999 V2000
   -2.0096    1.8833    0.0000 N   0  0
   -1.9929    1.3482    0.0000 C   0  0
   -1.5217    1.0909    0.0000 C   0  0
   -1.0668    1.3760    0.0000 C   0  0
   -1.0875    1.9227    0.0000 N   0  0
   -1.5590    2.1678    0.0000 C   0  0
   -0.5951    1.1291    0.0000 C   0  0
   -0.5755    0.5964    0.0000 O   0  0
   -0.1472    1.4192    0.0000 N   0  0
    0.3245    1.1681    0.0000 C   0  0
    0.7724    1.4496    0.0000 C   0  0
   -2.4426    1.0611    0.0000 C   0  0
   -2.9125    1.3110    0.0000 N   0  0
   -2.4264    0.5283    0.0000 O   0  0
   -3.3665    1.0323    0.0000 C   0  0
   -3.8365    1.2822    0.0000 C   0  0
   -3.8489    1.8109    0.0000 C   0  0
   -4.3181    2.0692    0.0000 C   0  0
   -4.2802    1.0030    0.0000 C   0  0
    1.2426    1.1986    0.0000 C   0  0
    1.6942    1.4880    0.0000 C   0  0
    1.6751    2.0174    0.0000 C   0  0
    1.1984    2.2681    0.0000 C   0  0
    0.7540    1.9766    0.0000 C   0  0
    2.1657    1.2407    0.0000 C   0  0
   -4.7498    1.2449    0.0000 C   0  0
   -4.7699    1.7803    0.0000 C   0  0
   -5.2859    1.9351    0.0000 O   0  0
   -5.5848    1.4877    0.0000 C   0  0
   -5.2524    1.0611    0.0000 C   0  0
 13 15  1  0
  2  3  1  0
 15 16  1  0
  7  8  2  0
 16 17  2  0
  1  2  2  0
 17 18  1  0
 18 27  2  0
  7  9  1  0
 26 19  2  0
 19 16  1  0
  3  4  2  0
 11 20  2  0
  9 10  1  0
 20 21  1  0
  6  1  1  0
 21 22  2  0
 10 11  1  0
 22 23  1  0
  4  5  1  0
 23 24  2  0
 24 11  1  0
  2 12  1  0
 21 25  1  0
 26 27  1  0
  5  6  2  0
 12 13  1  0
 12 14  2  0
  4  7  1  0
 27 28  1  0
 28 29  1  0
 29 30  1  0
 30 26  1  0
M  END
>  <ID_NEW>
CPDMM2396

>  <pIC50>
4.0

$$$$

  SciTegic12180812272D

 29 31  0  0  0  0            999 V2000
   -2.3634    2.7999    0.0000 N   0  0
   -2.3471    2.3573    0.0000 C   0  0
   -1.9155    2.1530    0.0000 C   0  0
   -1.4953    2.3858    0.0000 C   0  0
   -1.5162    2.8403    0.0000 N   0  0
   -1.9525    3.0409    0.0000 C   0  0
   -1.0660    2.1792    0.0000 C   0  0
   -1.0428    1.7345    0.0000 O   0  0
   -0.6444    2.4205    0.0000 N   0  0
   -2.7625    2.1111    0.0000 C   0  0
   -3.1940    2.3156    0.0000 N   0  0
   -2.7499    1.6620    0.0000 O   0  0
   -3.2109    2.7686    0.0000 C   0  0
   -3.6503    2.9772    0.0000 C   0  0
   -3.6695    3.4249    0.0000 C   0  0
   -4.1038    3.6324    0.0000 C   0  0
   -4.5114    3.3936    0.0000 C   0  0
   -4.4991    2.9403    0.0000 C   0  0
   -4.0645    2.7397    0.0000 C   0  0
   -4.9452    3.6230    0.0000 F   0  0
   -0.6398    2.8912    0.0000 C   0  0
   -0.2314    3.1248    0.0000 C   0  0
    0.1709    2.8873    0.0000 C   0  0
    0.5747    3.1161    0.0000 C   0  0
    0.5797    3.5920    0.0000 C   0  0
    0.1748    3.8249    0.0000 C   0  0
   -0.2301    3.5938    0.0000 C   0  0
    0.9765    2.8812    0.0000 Cl  0  0
    0.9951    3.8261    0.0000 F   0  0
  4  7  1  0
 11 13  1  0
  7  8  2  0
  7  9  1  0
 13 14  1  0
 14 15  2  0
 19 14  1  0
 15 16  1  0
 18 19  2  0
 16 17  2  0
 17 20  1  0
  5  6  2  0
 17 18  1  0
  9 21  1  0
  2  3  1  0
 21 22  1  0
  2 10  1  0
 22 23  2  0
  1  2  2  0
 23 24  1  0
  3  4  2  0
 24 25  2  0
 10 11  1  0
 25 26  1  0
 10 12  2  0
 26 27  2  0
 27 22  1  0
  6  1  1  0
  4  5  1  0
 24 28  1  0
 25 29  1  0
M  END
>  <ID_NEW>
CPDMM2397

>  <pIC50>
4.0

$$$$

  SciTegic12180812302D

 30 32  0  0  0  0            999 V2000
   -2.3847    1.8834    0.0000 N   0  0
   -2.3859    1.3851    0.0000 C   0  0
   -1.9545    1.1349    0.0000 C   0  0
   -1.5171    1.3856    0.0000 C   0  0
   -1.5200    1.8870    0.0000 N   0  0
   -1.9563    2.1295    0.0000 C   0  0
   -2.8174    1.1358    0.0000 C   0  0
   -3.2523    1.3863    0.0000 N   0  0
   -2.8180    0.6358    0.0000 O   0  0
   -1.0854    1.1368    0.0000 C   0  0
   -1.0841    0.6368    0.0000 O   0  0
   -0.6507    1.3838    0.0000 N   0  0
   -3.6796    1.1369    0.0000 C   0  0
   -4.1105    1.3874    0.0000 C   0  0
   -0.2273    1.1391    0.0000 C   0  0
    0.2073    1.3860    0.0000 C   0  0
   -4.1050    1.8843    0.0000 C   0  0
   -4.5433    2.1306    0.0000 C   0  0
   -4.9716    1.8853    0.0000 C   0  0
   -4.9738    1.3851    0.0000 C   0  0
   -4.5432    1.1385    0.0000 C   0  0
    0.6379    1.1400    0.0000 C   0  0
    1.0679    1.3862    0.0000 C   0  0
    1.0670    1.8871    0.0000 C   0  0
    0.6302    2.1316    0.0000 C   0  0
    0.2031    1.8830    0.0000 C   0  0
   -5.4040    2.1308    0.0000 C   0  0
    1.4980    2.1362    0.0000 C   0  0
   -5.4070    1.1353    0.0000 F   0  0
    1.4969    1.1381    0.0000 F   0  0
  2  3  1  0
 16 22  2  0
 10 11  2  0
 22 23  1  0
  5  6  2  0
 23 24  2  0
 10 12  1  0
 24 25  1  0
  6  1  1  0
 25 26  2  0
 26 16  1  0
  8 13  1  0
  1  2  2  0
 13 14  1  0
  2  7  1  0
 12 15  1  0
  3  4  2  0
 15 16  1  0
  7  8  1  0
 14 17  2  0
 17 18  1  0
  7  9  2  0
 19 27  1  0
 18 19  2  0
  4  5  1  0
 19 20  1  0
  4 10  1  0
 20 21  2  0
 24 28  1  0
 20 29  1  0
 21 14  1  0
 23 30  1  0
M  END
>  <ID_NEW>
CPDMM2398

>  <pIC50>
4.0

$$$$

  SciTegic12180812282D

 36 38  0  0  0  0            999 V2000
    1.0862    0.7917    0.0000 N   0  0
    1.0850    0.2476    0.0000 C   0  0
    1.5539   -0.0235    0.0000 C   0  0
    2.0329    0.2481    0.0000 C   0  0
    2.0300    0.7953    0.0000 N   0  0
    1.5521    1.0629    0.0000 C   0  0
    0.6159   -0.0226    0.0000 C   0  0
    0.1435    0.2488    0.0000 N   0  0
    0.6153   -0.5642    0.0000 O   0  0
    2.5063   -0.0216    0.0000 C   0  0
    2.5076   -0.5632    0.0000 O   0  0
    2.9785    0.2463    0.0000 N   0  0
   -0.3213   -0.0215    0.0000 C   0  0
   -0.7897    0.2499    0.0000 C   0  0
    3.4352   -0.0193    0.0000 C   0  0
    3.9115    0.2485    0.0000 C   0  0
   -0.7842    0.7926    0.0000 C   0  0
   -1.2642    1.0640    0.0000 C   0  0
   -1.7300    0.7936    0.0000 C   0  0
   -1.7322    0.2476    0.0000 C   0  0
   -1.2641   -0.0199    0.0000 C   0  0
    4.3796   -0.0184    0.0000 C   0  0
    4.8471    0.2487    0.0000 C   0  0
    4.8462    0.7954    0.0000 C   0  0
    4.3719    1.0650    0.0000 C   0  0
    3.9031    0.7913    0.0000 C   0  0
    5.3130   -0.0212    0.0000 F   0  0
   -2.2050   -0.0255    0.0000 F   0  0
   -2.1961    1.0633    0.0000 C   0  0
   -2.1957    1.6019    0.0000 F   0  0
   -2.6622    0.7945    0.0000 F   0  0
   -1.8150    1.4438    0.0000 F   0  0
    5.3185    1.0708    0.0000 C   0  0
    5.7932    0.7994    0.0000 F   0  0
    5.3162    1.6175    0.0000 F   0  0
    5.4623    0.5433    0.0000 F   0  0
 26 16  1  0
  8 13  1  0
  1  2  2  0
 13 14  1  0
  2  7  1  0
 12 15  1  0
  3  4  2  0
 15 16  1  0
  7  8  1  0
 14 17  2  0
 17 18  1  0
  7  9  2  0
 18 19  2  0
  4  5  1  0
 19 20  1  0
  4 10  1  0
 20 21  2  0
 21 14  1  0
  2  3  1  0
 23 27  1  0
 16 22  2  0
 20 28  1  0
 10 11  2  0
 19 29  1  0
 22 23  1  0
 29 30  1  0
  5  6  2  0
 29 31  1  0
 23 24  2  0
 29 32  1  0
 10 12  1  0
 24 33  1  0
 24 25  1  0
 33 34  1  0
  6  1  1  0
 33 35  1  0
 25 26  2  0
 33 36  1  0
M  END
>  <ID_NEW>
CPDMM2399

>  <pIC50>
4.0

$$$$

  SciTegic12180812282D

 28 30  0  0  0  0            999 V2000
   -1.7097    1.9584    0.0000 N   0  0
   -1.7109    1.3976    0.0000 C   0  0
   -1.2295    1.1182    0.0000 C   0  0
   -0.7379    1.3981    0.0000 C   0  0
   -0.7408    1.9620    0.0000 N   0  0
   -1.2313    2.2337    0.0000 C   0  0
   -2.1966    1.1191    0.0000 C   0  0
   -2.6815    1.3988    0.0000 N   0  0
   -2.1972    0.5608    0.0000 O   0  0
   -0.2521    1.1201    0.0000 C   0  0
   -0.2508    0.5618    0.0000 O   0  0
    0.2326    1.3963    0.0000 N   0  0
   -3.1588    1.1202    0.0000 C   0  0
   -3.6397    1.3999    0.0000 C   0  0
    0.7060    1.1224    0.0000 C   0  0
    1.1948    1.3985    0.0000 C   0  0
   -3.6342    1.9593    0.0000 C   0  0
   -4.1266    2.2348    0.0000 C   0  0
   -4.6049    1.9603    0.0000 C   0  0
   -4.6071    1.3976    0.0000 N   0  0
   -4.1265    1.1218    0.0000 C   0  0
    1.6754    1.1233    0.0000 C   0  0
    2.1554    1.3987    0.0000 N   0  0
    2.1545    1.9621    0.0000 C   0  0
    1.6677    2.2358    0.0000 C   0  0
    1.1864    1.9538    0.0000 C   0  0
   -5.0915    2.2350    0.0000 Cl  0  0
    2.6397    2.2404    0.0000 Cl  0  0
  2  3  1  0
 16 22  2  0
 10 11  2  0
 22 23  1  0
  5  6  2  0
 23 24  2  0
 10 12  1  0
 24 25  1  0
  6  1  1  0
 25 26  2  0
 26 16  1  0
  8 13  1  0
  1  2  2  0
 13 14  1  0
  2  7  1  0
 12 15  1  0
  3  4  2  0
 15 16  1  0
  7  8  1  0
 14 17  2  0
 17 18  1  0
  7  9  2  0
 19 27  1  0
 18 19  2  0
  4  5  1  0
 19 20  1  0
  4 10  1  0
 20 21  2  0
 24 28  1  0
 21 14  1  0
M  END
>  <ID_NEW>
CPDMM2400

>  <pIC50>
4.0

$$$$

  SciTegic12180812302D

 30 32  0  0  0  0            999 V2000
   -1.7014    1.9584    0.0000 N   0  0
   -1.7026    1.3976    0.0000 C   0  0
   -1.2212    1.1182    0.0000 C   0  0
   -0.7296    1.3981    0.0000 C   0  0
   -0.7325    1.9620    0.0000 N   0  0
   -1.2230    2.2337    0.0000 C   0  0
   -2.1883    1.1191    0.0000 C   0  0
   -2.6732    1.3988    0.0000 N   0  0
   -2.1889    0.5608    0.0000 O   0  0
   -0.2438    1.1201    0.0000 C   0  0
   -0.2425    0.5618    0.0000 O   0  0
    0.2409    1.3963    0.0000 N   0  0
   -3.1505    1.1202    0.0000 C   0  0
   -3.6314    1.3999    0.0000 C   0  0
    0.7143    1.1224    0.0000 C   0  0
    1.2031    1.3985    0.0000 C   0  0
   -3.6259    1.9593    0.0000 C   0  0
   -4.1183    2.2348    0.0000 C   0  0
   -4.5966    1.9603    0.0000 C   0  0
   -4.5988    1.3976    0.0000 C   0  0
   -4.1182    1.1218    0.0000 C   0  0
    1.6837    1.1233    0.0000 C   0  0
    2.1637    1.3987    0.0000 C   0  0
    2.1628    1.9621    0.0000 C   0  0
    1.6760    2.2358    0.0000 C   0  0
    1.1947    1.9538    0.0000 C   0  0
   -5.0832    2.2350    0.0000 Cl  0  0
    2.6480    2.2404    0.0000 Cl  0  0
   -5.0862    1.1186    0.0000 Cl  0  0
    2.6469    1.1214    0.0000 Cl  0  0
  2  3  1  0
 16 22  2  0
 10 11  2  0
 22 23  1  0
  5  6  2  0
 23 24  2  0
 10 12  1  0
 24 25  1  0
  6  1  1  0
 25 26  2  0
 26 16  1  0
  8 13  1  0
  1  2  2  0
 13 14  1  0
  2  7  1  0
 12 15  1  0
  3  4  2  0
 15 16  1  0
  7  8  1  0
 14 17  2  0
 17 18  1  0
  7  9  2  0
 19 27  1  0
 18 19  2  0
  4  5  1  0
 19 20  1  0
  4 10  1  0
 20 21  2  0
 24 28  1  0
 20 29  1  0
 21 14  1  0
 23 30  1  0
M  END
>  <ID_NEW>
CPDMM2401

>  <pIC50>
4.0

$$$$

  SciTegic12180812312D

 31 33  0  0  0  0            999 V2000
   -1.7701    2.8319    0.0000 N   0  0
   -1.7493    2.2937    0.0000 C   0  0
   -1.2391    2.0505    0.0000 C   0  0
   -0.7454    2.3358    0.0000 C   0  0
   -0.7667    2.8731    0.0000 N   0  0
   -1.2772    3.1210    0.0000 C   0  0
   -0.2251    2.0943    0.0000 C   0  0
   -0.2057    1.5583    0.0000 N   0  0
    0.2661    2.3752    0.0000 O   0  0
   -2.2384    2.0078    0.0000 C   0  0
   -2.7562    2.2553    0.0000 N   0  0
   -2.2210    1.4757    0.0000 O   0  0
    0.3132    1.3211    0.0000 C   0  0
   -2.7778    2.7828    0.0000 C   0  0
   -3.2915    3.0346    0.0000 C   0  0
   -3.3154    3.5652    0.0000 C   0  0
   -3.8322    3.8116    0.0000 C   0  0
   -4.3175    3.5289    0.0000 C   0  0
   -4.2964    2.9927    0.0000 C   0  0
   -3.7878    2.7490    0.0000 C   0  0
   -4.8254    3.7977    0.0000 F   0  0
    0.8682    0.5124    0.0000 C   0  0
    0.3625    0.7520    0.0000 C   0  0
   -0.1050    0.4300    0.0000 C   0  0
   -0.0595   -0.1318    0.0000 C   0  0
    0.4585   -0.3695    0.0000 C   0  0
    0.9234   -0.0497    0.0000 C   0  0
   -0.5175   -0.4504    0.0000 C   0  0
   -1.0307   -0.2177    0.0000 F   0  0
   -0.4708   -1.0185    0.0000 F   0  0
   -0.7167    0.0789    0.0000 F   0  0
  2  3  1  0
  2 10  1  0
  1  2  2  0
  3  4  2  0
 10 11  1  0
 10 12  2  0
  6  1  1  0
  4  5  1  0
  4  7  1  0
 11 14  1  0
  7  8  1  0
  7  9  2  0
 14 15  1  0
  8 13  1  0
 15 16  2  0
 20 15  1  0
 13 23  1  0
 16 17  1  0
 19 20  2  0
 17 18  2  0
 18 21  1  0
  5  6  2  0
 18 19  1  0
 27 22  1  0
 22 23  2  0
 24 25  2  0
 25 28  1  0
 25 26  1  0
 28 29  1  0
 23 24  1  0
 28 30  1  0
 26 27  2  0
 28 31  1  0
M  END
>  <ID_NEW>
CPDMM2402

>  <pIC50>
4.0

$$$$

  SciTegic12180812282D

 34 36  0  0  0  0            999 V2000
    0.2737    0.8251    0.0000 N   0  0
    0.2725    0.2809    0.0000 C   0  0
    0.7414    0.0099    0.0000 C   0  0
    1.2204    0.2814    0.0000 C   0  0
    1.2175    0.8287    0.0000 N   0  0
    0.7396    1.0962    0.0000 C   0  0
   -0.1966    0.0108    0.0000 C   0  0
   -0.6690    0.2821    0.0000 N   0  0
   -0.1972   -0.5309    0.0000 O   0  0
    1.6938    0.0118    0.0000 C   0  0
    1.6951   -0.5299    0.0000 O   0  0
    2.1660    0.2796    0.0000 N   0  0
   -1.1338    0.0119    0.0000 C   0  0
   -1.6022    0.2832    0.0000 C   0  0
    2.6227    0.0141    0.0000 C   0  0
    3.0990    0.2818    0.0000 C   0  0
   -1.5967    0.8260    0.0000 C   0  0
   -2.0767    1.0973    0.0000 C   0  0
   -2.5425    0.8270    0.0000 C   0  0
   -2.5447    0.2809    0.0000 C   0  0
   -2.0766    0.0135    0.0000 C   0  0
    3.5671    0.0150    0.0000 C   0  0
    4.0346    0.2820    0.0000 C   0  0
    4.0337    0.8288    0.0000 C   0  0
    3.5594    1.0983    0.0000 C   0  0
    3.0906    0.8246    0.0000 C   0  0
   -3.0123    1.0975    0.0000 O   0  0
    4.5063    1.1029    0.0000 O   0  0
   -3.0177    1.6395    0.0000 C   0  0
    4.5079    1.6455    0.0000 C   0  0
   -2.5510    1.9152    0.0000 F   0  0
   -3.4852    1.9059    0.0000 F   0  0
    4.9786    1.9155    0.0000 F   0  0
    4.0388    1.9182    0.0000 F   0  0
  5  6  2  0
 23 24  2  0
 10 12  1  0
 24 25  1  0
  6  1  1  0
 25 26  2  0
 26 16  1  0
  8 13  1  0
  1  2  2  0
 13 14  1  0
  2  7  1  0
 12 15  1  0
  3  4  2  0
 15 16  1  0
  7  8  1  0
 14 17  2  0
 17 18  1  0
  7  9  2  0
 19 27  1  0
 18 19  2  0
  4  5  1  0
 19 20  1  0
  4 10  1  0
 20 21  2  0
 24 28  1  0
 21 14  1  0
 27 29  1  0
  2  3  1  0
 28 30  1  0
 29 31  1  0
 16 22  2  0
 29 32  1  0
 10 11  2  0
 30 33  1  0
 22 23  1  0
 30 34  1  0
M  END
>  <ID_NEW>
CPDMM2403

>  <pIC50>
4.0

$$$$

  SciTegic12180812312D

 42 44  0  0  0  0            999 V2000
   -1.2723    1.4959    0.0000 N   0  0
   -1.2735    1.0518    0.0000 C   0  0
   -0.8879    0.8307    0.0000 C   0  0
   -0.4964    1.0565    0.0000 C   0  0
   -0.4993    1.4953    0.0000 N   0  0
   -0.8897    1.7171    0.0000 C   0  0
   -1.6633    0.8275    0.0000 C   0  0
   -2.0523    1.0489    0.0000 N   0  0
   -1.6598    0.3775    0.0000 O   0  0
   -0.1022    0.8368    0.0000 C   0  0
   -0.0967    0.3868    0.0000 O   0  0
    0.2826    1.0589    0.0000 N   0  0
   -2.4380    0.8244    0.0000 C   0  0
   -2.8355    1.0458    0.0000 C   0  0
   -2.8343    1.4926    0.0000 C   0  0
   -3.2226    1.7182    0.0000 C   0  0
   -3.6114    1.0393    0.0000 C   0  0
   -3.2224    0.8176    0.0000 C   0  0
   -3.6166    1.4916    0.0000 C   0  0
   -4.0035    0.8155    0.0000 N   0  0
   -4.3952    1.0356    0.0000 C   0  0
   -4.3991    1.4838    0.0000 O   0  0
   -4.7752    0.8166    0.0000 O   0  0
   -5.1671    1.0366    0.0000 C   0  0
   -5.5613    1.2592    0.0000 C   0  0
   -4.9458    1.4256    0.0000 C   0  0
   -5.3924    0.6479    0.0000 C   0  0
    0.6673    0.8367    0.0000 C   0  0
    1.0520    1.0587    0.0000 C   0  0
    1.4342    0.8350    0.0000 C   0  0
    1.8187    1.0567    0.0000 C   0  0
    1.8190    1.5014    0.0000 C   0  0
    1.4316    1.7235    0.0000 C   0  0
    1.0487    1.5005    0.0000 C   0  0
    2.2029    0.8345    0.0000 N   0  0
    2.5874    1.0561    0.0000 C   0  0
    2.5877    1.4999    0.0000 O   0  0
    2.9716    0.8339    0.0000 O   0  0
    3.3561    1.0556    0.0000 C   0  0
    3.7403    0.8334    0.0000 C   0  0
    3.3564    1.4994    0.0000 C   0  0
    3.4707    0.6268    0.0000 C   0  0
 10 12  1  0
 20 21  1  0
 21 22  2  0
 21 23  1  0
  6  1  1  0
  8 13  1  0
  1  2  2  0
 13 14  1  0
 23 24  1  0
  2  7  1  0
 24 25  1  0
 24 26  1  0
  3  4  2  0
 24 27  1  0
 12 28  1  0
 17 19  1  0
 28 29  1  0
  7  8  1  0
 29 30  2  0
 14 15  2  0
 30 31  1  0
 15 16  1  0
 31 32  2  0
  7  9  2  0
 32 33  1  0
 16 19  2  0
 33 34  2  0
 34 29  1  0
  4  5  1  0
 31 35  1  0
  4 10  1  0
 35 36  1  0
 17 18  2  0
 36 37  2  0
 18 14  1  0
 36 38  1  0
  2  3  1  0
 38 39  1  0
 10 11  2  0
 39 40  1  0
 17 20  1  0
 39 41  1  0
  5  6  2  0
 39 42  1  0
M  END
>  <ID_NEW>
CPDMM2404

>  <pIC50>
4.0

$$$$

  SciTegic12180812312D

 31 34  0  0  0  0            999 V2000
   -2.0096    1.8583    0.0000 N   0  0
   -1.9929    1.3232    0.0000 C   0  0
   -1.5259    1.0659    0.0000 C   0  0
   -1.0668    1.3510    0.0000 C   0  0
   -1.0875    1.8977    0.0000 N   0  0
   -1.5590    2.1387    0.0000 C   0  0
   -0.5951    1.1041    0.0000 C   0  0
   -0.5796    0.5755    0.0000 O   0  0
   -0.1472    1.3942    0.0000 N   0  0
    0.3245    1.1431    0.0000 C   0  0
    0.7724    1.4246    0.0000 C   0  0
   -2.4426    1.0361    0.0000 C   0  0
   -2.9125    1.2860    0.0000 N   0  0
   -2.4264    0.5074    0.0000 O   0  0
   -3.3665    1.0073    0.0000 C   0  0
   -3.8323    1.2572    0.0000 C   0  0
   -3.8447    1.7817    0.0000 C   0  0
   -4.3181    2.0442    0.0000 C   0  0
   -4.2802    0.9780    0.0000 C   0  0
    1.2426    1.1736    0.0000 C   0  0
    1.6942    1.4630    0.0000 C   0  0
    1.6751    1.9924    0.0000 C   0  0
    1.1984    2.2390    0.0000 C   0  0
    0.7540    1.9516    0.0000 C   0  0
    2.1657    1.2157    0.0000 F   0  0
   -4.7498    1.2241    0.0000 C   0  0
   -4.7658    1.7511    0.0000 C   0  0
   -5.2859    1.9101    0.0000 O   0  0
   -5.5848    1.4627    0.0000 C   0  0
   -5.2524    1.0361    0.0000 C   0  0
    2.1194    2.2703    0.0000 F   0  0
 13 15  1  0
  2  3  1  0
 15 16  1  0
  7  8  2  0
 16 17  2  0
  1  2  2  0
 17 18  1  0
 18 27  2  0
  7  9  1  0
 26 19  2  0
 19 16  1  0
  3  4  2  0
 11 20  2  0
  9 10  1  0
 20 21  1  0
  6  1  1  0
 21 22  2  0
 10 11  1  0
 22 23  1  0
  4  5  1  0
 23 24  2  0
 24 11  1  0
  2 12  1  0
 21 25  1  0
 26 27  1  0
  5  6  2  0
 12 13  1  0
 12 14  2  0
  4  7  1  0
 27 28  1  0
 28 29  1  0
 29 30  1  0
 30 26  1  0
 22 31  1  0
M  END
>  <ID_NEW>
CPDMM2405

>  <pIC50>
4.0

$$$$

  SciTegic12180812312D

 30 32  0  0  0  0            999 V2000
   -2.2306    1.9584    0.0000 N   0  0
   -2.2318    1.3976    0.0000 C   0  0
   -1.7545    1.1224    0.0000 C   0  0
   -1.2629    1.3981    0.0000 C   0  0
   -1.2658    1.9620    0.0000 C   0  0
   -1.7563    2.2295    0.0000 C   0  0
   -2.7174    1.1233    0.0000 C   0  0
   -3.2023    1.3988    0.0000 N   0  0
   -2.7180    0.5691    0.0000 O   0  0
   -0.7770    1.1243    0.0000 C   0  0
   -0.7757    0.5701    0.0000 O   0  0
   -0.2965    1.3963    0.0000 N   0  0
   -3.6796    1.1244    0.0000 C   0  0
   -4.1563    1.3999    0.0000 C   0  0
    0.1769    1.1266    0.0000 C   0  0
    0.6656    1.3985    0.0000 C   0  0
   -4.1508    1.9593    0.0000 C   0  0
   -4.6391    2.2306    0.0000 C   0  0
   -5.1174    1.9603    0.0000 C   0  0
   -5.1196    1.3976    0.0000 C   0  0
   -4.6390    1.1260    0.0000 C   0  0
    1.1420    1.1275    0.0000 C   0  0
    1.6220    1.3987    0.0000 C   0  0
    1.6211    1.9621    0.0000 C   0  0
    1.1343    2.2316    0.0000 C   0  0
    0.6531    1.9538    0.0000 C   0  0
   -5.6062    1.1150    0.0000 C   0  0
    2.0984    1.1212    0.0000 C   0  0
    2.1063    2.2486    0.0000 F   0  0
   -5.5914    2.2381    0.0000 F   0  0
 10 12  1  0
 24 25  1  0
  6  1  1  0
 25 26  2  0
 26 16  1  0
  8 13  1  0
  1  2  2  0
 13 14  1  0
  2  7  1  0
 12 15  1  0
  3  4  2  0
 15 16  1  0
  7  8  1  0
 14 17  2  0
 17 18  1  0
  7  9  2  0
 18 19  2  0
  4  5  1  0
 19 20  1  0
  4 10  1  0
 20 21  2  0
 21 14  1  0
  2  3  1  0
 16 22  2  0
 10 11  2  0
 20 27  1  0
 22 23  1  0
 23 28  1  0
  5  6  2  0
 24 29  1  0
 23 24  2  0
 19 30  1  0
M  END
>  <ID_NEW>
CPDMM2406

>  <pIC50>
4.0

$$$$

  SciTegic12180812302D

 33 36  0  0  0  0            999 V2000
   -2.4470    2.4000    0.0000 N   0  0
   -2.4303    1.8940    0.0000 C   0  0
   -1.9841    1.6534    0.0000 C   0  0
   -1.5542    1.9260    0.0000 C   0  0
   -1.5749    2.4351    0.0000 N   0  0
   -2.0214    2.6677    0.0000 C   0  0
   -2.8558    1.6208    0.0000 C   0  0
   -3.3054    1.8617    0.0000 N   0  0
   -2.8388    1.1172    0.0000 O   0  0
   -1.1077    1.6916    0.0000 C   0  0
   -0.6848    1.9608    0.0000 N   0  0
   -0.2381    1.7264    0.0000 C   0  0
    0.1890    1.9913    0.0000 C   0  0
   -1.0881    1.1881    0.0000 O   0  0
    0.6301    1.7570    0.0000 C   0  0
    1.0609    2.0254    0.0000 C   0  0
    1.0375    2.5299    0.0000 C   0  0
    0.5900    2.7639    0.0000 C   0  0
    0.1706    2.4932    0.0000 C   0  0
    1.5074    1.7906    0.0000 C   0  0
    1.5223    1.2871    0.0000 F   0  0
    1.9305    2.0595    0.0000 F   0  0
    1.1593    1.4187    0.0000 F   0  0
   -3.7306    1.5921    0.0000 C   0  0
   -4.1753    1.8304    0.0000 C   0  0
   -4.1920    2.3364    0.0000 C   0  0
   -4.6358    2.5704    0.0000 C   0  0
   -4.5997    1.5626    0.0000 C   0  0
   -5.0439    1.7971    0.0000 C   0  0
   -5.0612    2.3090    0.0000 C   0  0
   -5.5541    2.4463    0.0000 O   0  0
   -5.8362    2.0259    0.0000 C   0  0
   -5.5225    1.6240    0.0000 C   0  0
  6  1  1  0
 16 17  2  0
  4  5  1  0
 17 18  1  0
  5  6  2  0
 18 19  2  0
 19 13  1  0
 16 20  1  0
  4 10  1  0
 20 21  1  0
  7  8  1  0
 20 22  1  0
 10 11  1  0
 20 23  1  0
  2  7  1  0
  8 24  1  0
 11 12  1  0
 24 25  1  0
  7  9  2  0
 25 26  2  0
 12 13  1  0
 26 27  1  0
 27 30  2  0
  2  3  1  0
 29 28  2  0
 28 25  1  0
 29 30  1  0
 10 14  2  0
  1  2  2  0
 13 15  2  0
  3  4  2  0
 15 16  1  0
 30 31  1  0
 31 32  1  0
 32 33  1  0
 33 29  1  0
M  END
>  <ID_NEW>
CPDMM2407

>  <pIC50>
4.0

$$$$

  SciTegic12180812282D

 32 34  0  0  0  0            999 V2000
    0.0945    1.2709    0.0000 N   0  0
    0.0933    0.7101    0.0000 C   0  0
    0.5747    0.4307    0.0000 C   0  0
    1.0662    0.7106    0.0000 C   0  0
    1.0633    1.2745    0.0000 N   0  0
    0.5729    1.5462    0.0000 C   0  0
   -0.3924    0.4316    0.0000 C   0  0
   -0.8773    0.7113    0.0000 N   0  0
   -0.3930   -0.1267    0.0000 O   0  0
    1.5521    0.4326    0.0000 C   0  0
    1.5534   -0.1257    0.0000 O   0  0
    2.0368    0.7088    0.0000 N   0  0
   -1.3546    0.4327    0.0000 C   0  0
   -1.8355    0.7124    0.0000 C   0  0
    2.5102    0.4349    0.0000 C   0  0
    2.9990    0.7110    0.0000 C   0  0
   -1.8300    1.2718    0.0000 C   0  0
   -2.3225    1.5473    0.0000 C   0  0
   -2.8008    1.2728    0.0000 C   0  0
   -2.8030    0.7101    0.0000 C   0  0
   -2.3224    0.4343    0.0000 C   0  0
    3.4796    0.4358    0.0000 C   0  0
    3.9596    0.7112    0.0000 C   0  0
    3.9587    1.2746    0.0000 C   0  0
    3.4719    1.5483    0.0000 C   0  0
    2.9906    1.2663    0.0000 C   0  0
   -3.2873    1.5475    0.0000 O   0  0
    4.4438    1.5529    0.0000 O   0  0
   -3.2903    0.4311    0.0000 Cl  0  0
    4.4427    0.4339    0.0000 Cl  0  0
   -3.2927    2.1062    0.0000 C   0  0
    4.4454    2.1122    0.0000 C   0  0
 16 22  2  0
 10 11  2  0
 22 23  1  0
  5  6  2  0
 23 24  2  0
 10 12  1  0
 24 25  1  0
  6  1  1  0
 25 26  2  0
 26 16  1  0
  8 13  1  0
  1  2  2  0
 13 14  1  0
  2  7  1  0
 12 15  1  0
  3  4  2  0
 15 16  1  0
  7  8  1  0
 14 17  2  0
 17 18  1  0
  7  9  2  0
 19 27  1  0
 18 19  2  0
  4  5  1  0
 19 20  1  0
  4 10  1  0
 20 21  2  0
 24 28  1  0
 20 29  1  0
 21 14  1  0
 23 30  1  0
 27 31  1  0
  2  3  1  0
 28 32  1  0
M  END
>  <ID_NEW>
CPDMM2408

>  <pIC50>
4.0

$$$$

  SciTegic12180812282D

 36 38  0  0  0  0            999 V2000
    2.5194    1.0667    0.0000 N   0  0
    2.5182    0.5227    0.0000 C   0  0
    2.9829    0.2432    0.0000 C   0  0
    3.4577    0.5232    0.0000 C   0  0
    3.4548    1.0703    0.0000 N   0  0
    2.9811    1.3379    0.0000 C   0  0
    2.0492    0.2441    0.0000 C   0  0
    1.5768    0.5239    0.0000 N   0  0
    2.0486   -0.2975    0.0000 O   0  0
    3.9312    0.2451    0.0000 C   0  0
    3.9325   -0.2965    0.0000 O   0  0
    4.3992    0.5255    0.0000 N   0  0
    1.1036    0.2452    0.0000 C   0  0
    0.6353    0.5250    0.0000 C   0  0
    4.8602    0.2515    0.0000 C   0  0
    5.3364    0.5277    0.0000 C   0  0
    0.6449    1.0676    0.0000 C   0  0
    0.1691    1.3390    0.0000 C   0  0
   -0.2989    0.5227    0.0000 C   0  0
    0.1692    0.2509    0.0000 C   0  0
    5.8004    0.2524    0.0000 C   0  0
    6.2762    0.5279    0.0000 C   0  0
    6.2753    1.0704    0.0000 C   0  0
    5.7927    1.3400    0.0000 C   0  0
    5.3280    1.0663    0.0000 C   0  0
   -0.3000    1.0750    0.0000 C   0  0
   -0.7650    1.3463    0.0000 O   0  0
    6.7429    1.3454    0.0000 O   0  0
    7.2149    1.0779    0.0000 C   0  0
    7.6825    1.3528    0.0000 F   0  0
    7.2192    0.5354    0.0000 F   0  0
    7.0703    1.6007    0.0000 F   0  0
   -0.7626    1.8845    0.0000 C   0  0
   -1.2275    2.1558    0.0000 F   0  0
   -0.2952    2.1516    0.0000 F   0  0
   -1.1449    1.5056    0.0000 F   0  0
 21 22  1  0
  5  6  2  0
 22 23  2  0
 10 12  1  0
 23 24  1  0
  6  1  1  0
 24 25  2  0
 25 16  1  0
  8 13  1  0
  1  2  2  0
 13 14  1  0
  2  7  1  0
 12 15  1  0
  3  4  2  0
 19 26  1  0
 15 16  1  0
  7  8  1  0
 14 17  2  0
 17 18  1  0
 26 27  1  0
  7  9  2  0
 23 28  1  0
 18 26  2  0
 28 29  1  0
  4  5  1  0
 29 30  1  0
  4 10  1  0
 29 31  1  0
 19 20  2  0
 29 32  1  0
 20 14  1  0
 27 33  1  0
  2  3  1  0
 33 34  1  0
 16 21  2  0
 33 35  1  0
 10 11  2  0
 33 36  1  0
M  END
>  <ID_NEW>
CPDMM2409

>  <pIC50>
4.0

$$$$

  SciTegic12180812312D

 30 32  0  0  0  0            999 V2000
   -2.2603    1.8616    0.0000 N   0  0
   -2.2391    1.3682    0.0000 C   0  0
   -1.7322    1.1366    0.0000 C   0  0
   -1.2464    1.4141    0.0000 C   0  0
   -1.2675    1.8983    0.0000 N   0  0
   -1.7707    2.1219    0.0000 C   0  0
   -0.7753    1.1351    0.0000 C   0  0
   -0.7703    0.5935    0.0000 O   0  0
   -0.3050    1.4144    0.0000 N   0  0
   -2.6902    1.0658    0.0000 C   0  0
   -3.1771    1.3117    0.0000 N   0  0
   -2.6502    0.5221    0.0000 O   0  0
   -3.6324    0.9969    0.0000 C   0  0
    0.1704    1.1353    0.0000 C   0  0
    0.6407    1.4147    0.0000 C   0  0
   -4.1236    1.2427    0.0000 C   0  0
   -4.1550    1.7850    0.0000 C   0  0
   -4.6410    2.0225    0.0000 C   0  0
   -5.0974    1.7202    0.0000 C   0  0
   -5.0545    1.1679    0.0000 C   0  0
   -4.5680    0.9343    0.0000 C   0  0
    1.1143    1.1428    0.0000 C   0  0
    1.0993    2.2345    0.0000 C   0  0
    0.6365    1.9577    0.0000 C   0  0
    1.5796    1.9724    0.0000 C   0  0
    1.5792    1.4265    0.0000 C   0  0
   -5.5891    1.9566    0.0000 F   0  0
   -5.5041    0.8633    0.0000 C   0  0
    2.0496    2.2524    0.0000 F   0  0
    2.0534    1.1588    0.0000 Br  0  0
  7  8  2  0
 16 17  2  0
  1  2  2  0
 17 18  1  0
  7  9  1  0
 18 19  2  0
  3  4  2  0
 19 20  1  0
  2 10  1  0
 20 21  2  0
 21 16  1  0
  6  1  1  0
 15 22  2  0
 22 26  1  0
 10 11  1  0
 25 23  1  0
  4  5  1  0
 23 24  2  0
 24 15  1  0
 25 26  2  0
 10 12  2  0
  5  6  2  0
 11 13  1  0
  9 14  1  0
  4  7  1  0
 19 27  1  0
 14 15  1  0
 20 28  1  0
  2  3  1  0
 25 29  1  0
 13 16  1  0
 26 30  1  0
M  END
>  <ID_NEW>
CPDMM2410

>  <pIC50>
4.0

$$$$

  SciTegic12180812312D

 29 31  0  0  0  0            999 V2000
   -2.2227    1.8866    0.0000 N   0  0
   -2.2057    1.3848    0.0000 C   0  0
   -1.6905    1.1491    0.0000 C   0  0
   -1.2005    1.4349    0.0000 C   0  0
   -1.2216    1.9191    0.0000 N   0  0
   -1.7290    2.1511    0.0000 C   0  0
   -0.7211    1.1476    0.0000 C   0  0
   -0.7161    0.5976    0.0000 O   0  0
   -0.2466    1.4352    0.0000 N   0  0
   -2.6610    1.0825    0.0000 C   0  0
   -3.1563    1.3284    0.0000 N   0  0
   -2.6210    0.5304    0.0000 O   0  0
   -3.6115    1.0094    0.0000 C   0  0
    0.2329    1.1478    0.0000 C   0  0
    0.7116    1.4355    0.0000 C   0  0
   -4.1111    1.2552    0.0000 C   0  0
   -4.1425    1.8100    0.0000 C   0  0
   -4.6368    2.0475    0.0000 C   0  0
   -5.0974    1.7410    0.0000 C   0  0
   -5.0503    1.1804    0.0000 C   0  0
   -4.5638    0.9468    0.0000 C   0  0
    1.1893    1.1595    0.0000 C   0  0
    1.1743    2.2637    0.0000 C   0  0
    0.7032    1.9869    0.0000 C   0  0
    1.6629    1.9974    0.0000 C   0  0
    1.6625    1.4432    0.0000 C   0  0
   -5.5932    1.9858    0.0000 F   0  0
   -5.5124    0.8717    0.0000 C   0  0
    2.1409    1.1755    0.0000 C   0  0
 13 16  1  0
  7  8  2  0
 16 17  2  0
  1  2  2  0
 17 18  1  0
  7  9  1  0
 18 19  2  0
  3  4  2  0
 19 20  1  0
  2 10  1  0
 20 21  2  0
 21 16  1  0
  6  1  1  0
 15 22  2  0
 22 26  1  0
 10 11  1  0
 25 23  1  0
  4  5  1  0
 23 24  2  0
 24 15  1  0
 25 26  2  0
 10 12  2  0
  5  6  2  0
 11 13  1  0
  9 14  1  0
  4  7  1  0
 19 27  1  0
 14 15  1  0
 20 28  1  0
  2  3  1  0
 26 29  1  0
M  END
>  <ID_NEW>
CPDMM2411

>  <pIC50>
4.0

$$$$

  SciTegic12180812282D

 30 32  0  0  0  0            999 V2000
   -1.7086    2.8366    0.0000 N   0  0
   -1.6900    2.3015    0.0000 C   0  0
   -1.2181    2.0502    0.0000 C   0  0
   -0.7682    2.3369    0.0000 C   0  0
   -0.7868    2.8710    0.0000 N   0  0
   -1.2593    3.1185    0.0000 C   0  0
   -0.2948    2.0913    0.0000 C   0  0
   -0.2738    1.5545    0.0000 N   0  0
    0.1565    2.3742    0.0000 O   0  0
   -2.1395    2.0141    0.0000 C   0  0
   -2.6109    2.2657    0.0000 N   0  0
   -2.1204    1.4814    0.0000 O   0  0
    0.1985    1.3089    0.0000 C   0  0
   -2.6342    2.7984    0.0000 C   0  0
   -3.1054    3.0417    0.0000 C   0  0
   -3.1224    3.5770    0.0000 C   0  0
   -3.5928    3.8274    0.0000 C   0  0
   -4.0469    3.5432    0.0000 C   0  0
   -4.0207    3.0106    0.0000 C   0  0
   -3.5534    2.7584    0.0000 C   0  0
   -4.4672    2.7227    0.0000 Cl  0  0
   -4.5158    3.7914    0.0000 F   0  0
    0.6937    0.5282    0.0000 C   0  0
    0.2236    0.7753    0.0000 C   0  0
   -0.2320    0.4918    0.0000 C   0  0
   -0.2062   -0.0429    0.0000 C   0  0
    0.2684   -0.2923    0.0000 C   0  0
    0.7167   -0.0023    0.0000 C   0  0
    0.2932   -0.8247    0.0000 O   0  0
   -0.1561   -1.1108    0.0000 C   0  0
  2  3  1  0
  2 10  1  0
  1  2  2  0
  3  4  2  0
 10 11  1  0
 10 12  2  0
  6  1  1  0
  4  5  1  0
  4  7  1  0
 11 14  1  0
  7  8  1  0
  7  9  2  0
 14 15  1  0
  8 13  1  0
 20 15  1  0
 15 16  2  0
 13 24  1  0
 19 20  2  0
 16 17  1  0
 18 19  1  0
 19 21  1  0
 18 22  1  0
  5  6  2  0
 17 18  2  0
 24 25  1  0
 27 28  2  0
 28 23  1  0
 23 24  2  0
 25 26  2  0
 27 29  1  0
 26 27  1  0
 29 30  1  0
M  END
>  <ID_NEW>
CPDMM2412

>  <pIC50>
4.0

$$$$

  SciTegic12180812272D

 29 31  0  0  0  0            999 V2000
   -1.7677    2.8042    0.0000 N   0  0
   -1.7473    2.2698    0.0000 C   0  0
   -1.2238    2.0196    0.0000 C   0  0
   -0.7246    2.3109    0.0000 C   0  0
   -0.7496    2.8528    0.0000 N   0  0
   -1.2693    3.0993    0.0000 C   0  0
   -0.1996    2.0584    0.0000 C   0  0
   -0.1763    1.5220    0.0000 N   0  0
    0.3014    2.3496    0.0000 O   0  0
   -2.2460    1.9778    0.0000 C   0  0
   -2.7731    2.2281    0.0000 N   0  0
   -2.2291    1.4330    0.0000 O   0  0
    0.3474    1.2736    0.0000 C   0  0
   -2.7942    2.7686    0.0000 C   0  0
   -3.3171    3.0147    0.0000 C   0  0
   -3.3404    3.5624    0.0000 C   0  0
   -3.8622    3.8116    0.0000 C   0  0
   -4.3614    3.5188    0.0000 C   0  0
   -4.3324    2.9737    0.0000 C   0  0
   -3.8145    2.7314    0.0000 C   0  0
   -4.8702    3.7940    0.0000 F   0  0
    0.9146    0.4540    0.0000 C   0  0
    0.3957    0.7006    0.0000 C   0  0
   -0.0777    0.3735    0.0000 C   0  0
   -0.0290   -0.2001    0.0000 C   0  0
    0.4937   -0.4446    0.0000 C   0  0
    0.9644   -0.1158    0.0000 C   0  0
   -0.5014   -0.5278    0.0000 F   0  0
    0.5407   -1.0163    0.0000 F   0  0
  2  3  1  0
  2 10  1  0
  1  2  2  0
  3  4  2  0
 10 11  1  0
 10 12  2  0
  6  1  1  0
  4  5  1  0
  4  7  1  0
 11 14  1  0
  7  8  1  0
  7  9  2  0
 14 15  1  0
  8 13  1  0
 15 16  2  0
 20 15  1  0
 13 23  1  0
 16 17  1  0
 19 20  2  0
 17 18  2  0
 18 21  1  0
  5  6  2  0
 18 19  1  0
 23 24  1  0
 26 27  2  0
 27 22  1  0
 22 23  2  0
 24 25  2  0
 25 28  1  0
 25 26  1  0
 26 29  1  0
M  END
>  <ID_NEW>
CPDMM2413

>  <pIC50>
4.0

$$$$

  SciTegic12180812282D

 27 29  0  0  0  0            999 V2000
   -2.2014    1.9792    0.0000 N   0  0
   -2.2026    1.3851    0.0000 C   0  0
   -1.6920    1.0931    0.0000 C   0  0
   -1.1713    1.3856    0.0000 C   0  0
   -1.1742    1.9828    0.0000 N   0  0
   -1.6938    2.2795    0.0000 C   0  0
   -0.6646    1.0950    0.0000 C   0  0
   -0.6633    0.4992    0.0000 O   0  0
   -0.1507    1.3837    0.0000 N   0  0
    0.3643    1.0932    0.0000 C   0  0
    0.8750    1.3958    0.0000 C   0  0
    1.3930    1.1038    0.0000 C   0  0
    1.9032    1.4016    0.0000 C   0  0
    1.8958    1.9942    0.0000 C   0  0
    1.3764    2.2873    0.0000 N   0  0
    0.8692    1.9829    0.0000 C   0  0
   -2.7132    1.0940    0.0000 C   0  0
   -3.2315    1.3863    0.0000 N   0  0
   -2.7138    0.4982    0.0000 O   0  0
   -3.7458    1.0958    0.0000 C   0  0
   -4.2625    1.3874    0.0000 C   0  0
   -4.2608    1.9863    0.0000 C   0  0
   -4.7766    2.2821    0.0000 C   0  0
   -5.2890    1.9843    0.0000 C   0  0
   -5.2894    1.3864    0.0000 C   0  0
   -4.7730    1.0944    0.0000 C   0  0
   -5.8046    2.2824    0.0000 F   0  0
 12 13  1  0
  5  6  2  0
 13 14  2  0
  6  1  1  0
 14 15  1  0
 15 16  2  0
 16 11  1  0
  4  7  1  0
  2 17  1  0
  2  3  1  0
 17 18  1  0
  7  8  2  0
 17 19  2  0
 18 20  1  0
  7  9  1  0
 20 21  1  0
  3  4  2  0
 21 22  2  0
  9 10  1  0
 22 23  1  0
 23 24  2  0
 10 11  1  0
 24 25  1  0
  4  5  1  0
 25 26  2  0
 26 21  1  0
 11 12  2  0
  1  2  2  0
 24 27  1  0
M  END
>  <ID_NEW>
CPDMM2414

>  <pIC50>
4.0

$$$$

  -MTS-   10172316422D 0   0.00000     0.00000     0

 32 34  0  0  0  0  0  0  0  0999 V2000
    0.1860    1.3170    0.0000 N   0  0  0  0  0  0  0  0  0  0  0  0
    0.1850    0.6850    0.0000 C   0  0  0  0  0  0  0  0  0  0  0  0
    0.7330    0.3640    0.0000 C   0  0  0  0  0  0  0  0  0  0  0  0
    1.2870    0.6860    0.0000 C   0  0  0  0  0  0  0  0  0  0  0  0
    1.2840    1.3200    0.0000 N   0  0  0  0  0  0  0  0  0  0  0  0
    0.7310    1.6340    0.0000 C   0  0  0  0  0  0  0  0  0  0  0  0
   -0.3630    0.3650    0.0000 C   0  0  0  0  0  0  0  0  0  0  0  0
   -0.9150    0.6860    0.0000 N   0  0  0  0  0  0  0  0  0  0  0  0
   -0.3640   -0.2640    0.0000 O   0  0  0  0  0  0  0  0  0  0  0  0
    1.8350    0.3660    0.0000 C   0  0  0  0  0  0  0  0  0  0  0  0
    1.8370   -0.2630    0.0000 O   0  0  0  0  0  0  0  0  0  0  0  0
    2.3870    0.6840    0.0000 N   0  0  0  0  0  0  0  0  0  0  0  0
   -1.4630    0.3660    0.0000 C   0  0  1  0  0  0  0  0  0  0  0  0
   -2.0100    0.6870    0.0000 C   0  0  0  0  0  0  0  0  0  0  0  0
    2.9270    0.3770    0.0000 C   0  0  1  0  0  0  0  0  0  0  0  0
    3.4820    0.6860    0.0000 C   0  0  0  0  0  0  0  0  0  0  0  0
   -2.0010    1.3180    0.0000 C   0  0  0  0  0  0  0  0  0  0  0  0
   -2.5560    1.6350    0.0000 C   0  0  0  0  0  0  0  0  0  0  0  0
   -3.1050    1.3190    0.0000 C   0  0  0  0  0  0  0  0  0  0  0  0
   -3.1030    0.6850    0.0000 C   0  0  0  0  0  0  0  0  0  0  0  0
   -2.5560    0.3760    0.0000 C   0  0  0  0  0  0  0  0  0  0  0  0
    4.0250    0.3770    0.0000 C   0  0  0  0  0  0  0  0  0  0  0  0
    4.5760    0.6860    0.0000 C   0  0  0  0  0  0  0  0  0  0  0  0
    4.5750    1.3200    0.0000 C   0  0  0  0  0  0  0  0  0  0  0  0
    4.0180    1.6360    0.0000 C   0  0  0  0  0  0  0  0  0  0  0  0
    3.4740    1.3160    0.0000 C   0  0  0  0  0  0  0  0  0  0  0  0
    2.9240   -0.2450    0.0000 C   0  0  0  0  0  0  0  0  0  0  0  0
   -1.4640   -0.2690    0.0000 C   0  0  0  0  0  0  0  0  0  0  0  0
   -3.6500    0.3650    0.0000 O   0  0  0  0  0  0  0  0  0  0  0  0
   -4.2000    0.6780    0.0000 C   0  0  0  0  0  0  0  0  0  0  0  0
    5.1210    0.3670    0.0000 O   0  0  0  0  0  0  0  0  0  0  0  0
    5.6700    0.6800    0.0000 C   0  0  0  0  0  0  0  0  0  0  0  0
  4  5  1  0  0  0  0
 19 20  1  0  0  0  0
  4 10  1  0  0  0  0
 20 21  2  0  0  0  0
 21 14  1  0  0  0  0
  2  3  1  0  0  0  0
 16 22  2  0  0  0  0
 10 11  2  0  0  0  0
 22 23  1  0  0  0  0
  5  6  2  0  0  0  0
 23 24  2  0  0  0  0
 10 12  1  0  0  0  0
 24 25  1  0  0  0  0
  6  1  1  0  0  0  0
 25 26  2  0  0  0  0
 26 16  1  0  0  0  0
  8 13  1  0  0  0  0
  1  2  2  0  0  0  0
 13 14  1  0  0  0  0
  2  7  1  0  0  0  0
 12 15  1  0  0  0  0
  3  4  2  0  0  0  0
 15 16  1  0  0  0  0
 15 27  1  1  0  0  0
  7  8  1  0  0  0  0
 13 28  1  6  0  0  0
 14 17  2  0  0  0  0
 20 29  1  0  0  0  0
 17 18  1  0  0  0  0
 29 30  1  0  0  0  0
  7  9  2  0  0  0  0
 23 31  1  0  0  0  0
 18 19  2  0  0  0  0
 31 32  1  0  0  0  0
V   13 M1
V   15 M1
M  END
>  <ID_NEW>
CPDMM2415

>  <pIC50>
4.0

$$$$

  SciTegic12180812252D

 28 30  0  0  0  0            999 V2000
   -1.7875    2.8298    0.0000 N   0  0
   -1.7705    2.2948    0.0000 C   0  0
   -1.2887    2.0459    0.0000 C   0  0
   -0.8363    2.3307    0.0000 C   0  0
   -0.8618    2.8729    0.0000 N   0  0
   -1.3355    3.1181    0.0000 C   0  0
   -0.3575    2.0834    0.0000 C   0  0
   -0.3338    1.5467    0.0000 N   0  0
    0.0965    2.3727    0.0000 O   0  0
   -2.2226    2.0009    0.0000 C   0  0
   -2.6994    2.2543    0.0000 N   0  0
   -2.1967    1.4641    0.0000 O   0  0
    0.1438    1.2993    0.0000 C   0  0
   -2.7211    2.7911    0.0000 C   0  0
   -3.1980    3.0402    0.0000 C   0  0
   -3.2217    3.5754    0.0000 C   0  0
   -3.6935    3.8235    0.0000 C   0  0
   -4.1502    3.5412    0.0000 C   0  0
   -4.1213    3.0004    0.0000 C   0  0
   -3.6529    2.7547    0.0000 C   0  0
   -4.5747    2.7101    0.0000 F   0  0
    0.6431    0.5126    0.0000 C   0  0
    0.1676    0.7658    0.0000 C   0  0
   -0.2864    0.4716    0.0000 C   0  0
   -0.2623   -0.0631    0.0000 C   0  0
    0.2178   -0.3098    0.0000 C   0  0
    0.6690   -0.0176    0.0000 C   0  0
   -0.7152   -0.3540    0.0000 Cl  0  0
  2  3  1  0
  2 10  1  0
  1  2  2  0
  3  4  2  0
 10 11  1  0
 10 12  2  0
  6  1  1  0
  4  5  1  0
  4  7  1  0
 11 14  1  0
  7  8  1  0
  7  9  2  0
 14 15  1  0
  8 13  1  0
 20 15  1  0
 15 16  2  0
 13 23  1  0
 19 20  2  0
 16 17  1  0
 18 19  1  0
 19 21  1  0
  5  6  2  0
 17 18  2  0
 25 26  1  0
 23 24  1  0
 26 27  2  0
 27 22  1  0
 22 23  2  0
 24 25  2  0
 25 28  1  0
M  END
>  <ID_NEW>
CPDMM2416

>  <pIC50>
4.0

$$$$

  SciTegic12180812252D

 27 29  0  0  0  0            999 V2000
   -2.0090    2.6641    0.0000 N   0  0
   -1.9848    2.0418    0.0000 C   0  0
   -1.4394    1.7620    0.0000 C   0  0
   -0.9175    2.0911    0.0000 C   0  0
   -0.9459    2.7122    0.0000 N   0  0
   -1.5001    2.9924    0.0000 C   0  0
   -0.3665    1.8045    0.0000 C   0  0
   -0.3358    1.1888    0.0000 N   0  0
    0.1526    2.1420    0.0000 O   0  0
   -2.5105    1.7079    0.0000 C   0  0
   -3.0552    1.9879    0.0000 N   0  0
   -2.4775    1.0963    0.0000 O   0  0
    0.2057    0.9148    0.0000 C   0  0
   -3.0840    2.6122    0.0000 C   0  0
   -3.6330    2.8920    0.0000 C   0  0
   -3.6555    3.5104    0.0000 C   0  0
   -4.2118    3.7978    0.0000 C   0  0
   -4.7253    3.4628    0.0000 C   0  0
   -4.6936    2.8388    0.0000 C   0  0
   -4.1446    2.5666    0.0000 C   0  0
    0.7883    0.0101    0.0000 C   0  0
    0.2406    0.2898    0.0000 C   0  0
   -0.2786   -0.0527    0.0000 C   0  0
   -0.2472   -0.6623    0.0000 C   0  0
    0.3050   -0.9438    0.0000 C   0  0
    0.8212   -0.6075    0.0000 C   0  0
   -0.7653   -0.9889    0.0000 F   0  0
  2  3  1  0
  2 10  1  0
  1  2  2  0
  3  4  2  0
 10 11  1  0
 10 12  2  0
  6  1  1  0
  4  5  1  0
  4  7  1  0
 11 14  1  0
  7  8  1  0
  7  9  2  0
 14 15  1  0
  8 13  1  0
 15 16  2  0
 20 15  1  0
 13 22  1  0
 16 17  1  0
 19 20  2  0
 17 18  2  0
  5  6  2  0
 18 19  1  0
 24 25  1  0
 22 23  1  0
 25 26  2  0
 26 21  1  0
 21 22  2  0
 23 24  2  0
 24 27  1  0
M  END
>  <ID_NEW>
CPDMM2417

>  <pIC50>
4.0

$$$$

  SciTegic12180812242D

 28 30  0  0  0  0            999 V2000
   -1.6848    1.9459    0.0000 C   0  0
   -1.6859    1.3936    0.0000 C   0  0
   -1.2003    1.1099    0.0000 C   0  0
   -0.7173    1.3940    0.0000 C   0  0
   -0.7201    1.9579    0.0000 C   0  0
   -1.2021    2.2295    0.0000 C   0  0
   -2.1674    1.1108    0.0000 C   0  0
   -2.6482    1.3947    0.0000 N   0  0
   -2.1681    0.5566    0.0000 O   0  0
   -0.2395    1.1119    0.0000 C   0  0
   -0.2383    0.5577    0.0000 O   0  0
    0.2451    1.3963    0.0000 N   0  0
    0.7250    1.1209    0.0000 C   0  0
    1.2041    1.4000    0.0000 C   0  0
   -3.1376    1.1125    0.0000 C   0  0
   -3.6250    1.3958    0.0000 C   0  0
   -3.6248    1.9603    0.0000 C   0  0
   -4.1074    2.2435    0.0000 C   0  0
   -4.5977    1.9634    0.0000 C   0  0
   -4.5971    1.3960    0.0000 C   0  0
   -4.1098    1.1162    0.0000 C   0  0
    1.6895    1.1224    0.0000 C   0  0
    2.1682    1.4009    0.0000 C   0  0
    2.1662    1.9559    0.0000 C   0  0
    1.6802    2.2307    0.0000 C   0  0
    1.2040    1.9542    0.0000 C   0  0
   -5.0843    1.1117    0.0000 Cl  0  0
    2.6490    1.1218    0.0000 Cl  0  0
 13 14  1  0
  2  7  1  0
  8 15  1  0
  3  4  2  0
 15 16  1  0
  7  8  1  0
 16 17  2  0
  7  9  2  0
 17 18  1  0
  4  5  1  0
 18 19  2  0
  4 10  1  0
 19 20  1  0
  2  3  1  0
 20 21  2  0
 21 16  1  0
 10 11  2  0
 14 22  2  0
  5  6  2  0
 22 23  1  0
 10 12  1  0
 23 24  2  0
  6  1  1  0
 24 25  1  0
 25 26  2  0
 26 14  1  0
 12 13  1  0
 20 27  1  0
  1  2  2  0
 23 28  1  0
M  END
>  <ID_NEW>
CPDMM2418

>  <pIC50>
4.0

$$$$

  SciTegic12180812252D

 28 30  0  0  0  0            999 V2000
   -1.7044    2.8032    0.0000 N   0  0
   -1.6816    2.2515    0.0000 C   0  0
   -1.1972    2.0001    0.0000 C   0  0
   -0.7348    2.2910    0.0000 C   0  0
   -0.7576    2.8376    0.0000 N   0  0
   -1.2425    3.0935    0.0000 C   0  0
   -0.2531    2.0371    0.0000 C   0  0
   -0.2279    1.4878    0.0000 N   0  0
    0.2107    2.3283    0.0000 O   0  0
   -2.1436    1.9599    0.0000 C   0  0
   -2.6275    2.2156    0.0000 N   0  0
   -2.1245    1.4146    0.0000 O   0  0
    0.2569    1.2380    0.0000 C   0  0
   -2.6508    2.7608    0.0000 C   0  0
   -3.1345    3.0167    0.0000 C   0  0
   -3.1556    3.5644    0.0000 C   0  0
   -3.6386    3.8190    0.0000 C   0  0
   -4.1010    3.5306    0.0000 C   0  0
   -4.0748    2.9814    0.0000 C   0  0
   -3.5950    2.7292    0.0000 C   0  0
   -4.5338    2.6851    0.0000 Cl  0  0
   -4.5824    3.7830    0.0000 F   0  0
    0.7646    0.4323    0.0000 C   0  0
    0.2779    0.6877    0.0000 C   0  0
   -0.1861    0.3959    0.0000 C   0  0
   -0.1603   -0.1513    0.0000 C   0  0
    0.3268   -0.4049    0.0000 C   0  0
    0.7835   -0.1107    0.0000 C   0  0
  2  3  1  0
  2 10  1  0
  1  2  2  0
  3  4  2  0
 10 11  1  0
 10 12  2  0
  6  1  1  0
  4  5  1  0
  4  7  1  0
 11 14  1  0
  7  8  1  0
  7  9  2  0
 14 15  1  0
  8 13  1  0
 20 15  1  0
 15 16  2  0
 13 24  1  0
 19 20  2  0
 16 17  1  0
 18 19  1  0
 19 21  1  0
 18 22  1  0
  5  6  2  0
 17 18  2  0
 26 27  1  0
 24 25  1  0
 27 28  2  0
 28 23  1  0
 23 24  2  0
 25 26  2  0
M  END
>  <ID_NEW>
CPDMM2419

>  <pIC50>
4.0

$$$$

  SciTegic12180812242D

 28 30  0  0  0  0            999 V2000
    0.0903    1.1292    0.0000 C   0  0
    0.0891    0.4976    0.0000 C   0  0
    0.6372    0.1765    0.0000 N   0  0
    1.1912    0.4981    0.0000 C   0  0
    1.1883    1.1328    0.0000 C   0  0
    0.6354    1.4461    0.0000 C   0  0
   -0.4590    0.1774    0.0000 C   0  0
   -1.0106    0.4988    0.0000 N   0  0
   -0.4596   -0.4517    0.0000 O   0  0
    1.7397    0.1784    0.0000 C   0  0
    1.7410   -0.4507    0.0000 O   0  0
    2.2910    0.4963    0.0000 N   0  0
   -1.5588    0.1785    0.0000 C   0  0
   -2.1063    0.4999    0.0000 C   0  0
    2.8311    0.1891    0.0000 C   0  0
    3.3865    0.4985    0.0000 C   0  0
   -2.0967    1.1301    0.0000 C   0  0
   -2.6516    1.4472    0.0000 C   0  0
   -3.2008    1.1311    0.0000 C   0  0
   -3.1988    0.4976    0.0000 C   0  0
   -2.6515    0.1885    0.0000 C   0  0
    3.9296    0.1900    0.0000 C   0  0
    4.4804    0.4987    0.0000 C   0  0
    4.4795    1.1329    0.0000 C   0  0
    3.9219    1.4482    0.0000 C   0  0
    3.3781    1.1288    0.0000 C   0  0
    5.0270    1.4529    0.0000 F   0  0
   -3.7499    1.4475    0.0000 F   0  0
 14 17  2  0
 17 18  1  0
  7  9  2  0
 18 19  2  0
  4  5  1  0
 19 20  1  0
  4 10  1  0
 20 21  2  0
 21 14  1  0
  2  3  1  0
 16 22  2  0
 10 11  2  0
 22 23  1  0
  5  6  2  0
 23 24  2  0
 10 12  1  0
 24 25  1  0
  6  1  1  0
 25 26  2  0
 26 16  1  0
  8 13  1  0
  1  2  2  0
 13 14  1  0
  2  7  1  0
 12 15  1  0
  3  4  2  0
 15 16  1  0
 24 27  1  0
  7  8  1  0
 19 28  1  0
M  END
>  <ID_NEW>
CPDMM2420

>  <pIC50>
4.0

$$$$

  SciTegic12180812122D

 30 32  0  0  0  0            999 V2000
    2.1819    2.1084    0.0000 N   0  0
    2.1807    1.4685    0.0000 C   0  0
    2.7288    1.1474    0.0000 C   0  0
    3.2828    1.4690    0.0000 C   0  0
    3.2799    2.1120    0.0000 N   0  0
    2.7270    2.4254    0.0000 C   0  0
    1.6326    1.1483    0.0000 C   0  0
    1.0810    1.4697    0.0000 N   0  0
    1.6320    0.5108    0.0000 O   0  0
    3.8313    1.1493    0.0000 C   0  0
    3.8326    0.5118    0.0000 O   0  0
    4.3826    1.4755    0.0000 N   0  0
    0.5328    1.1494    0.0000 C   0  0
    4.9227    1.1557    0.0000 C   0  0
    5.4781    1.4777    0.0000 C   0  0
   -0.0187    1.4640    0.0000 C   0  0
    6.0347    1.1577    0.0000 O   0  0
    6.5901    1.4796    0.0000 C   0  0
    7.1428    1.1570    0.0000 C   0  0
    7.6978    1.4785    0.0000 C   0  0
    7.6970    2.1211    0.0000 C   0  0
    7.1365    2.4410    0.0000 C   0  0
    6.5838    2.1177    0.0000 C   0  0
   -0.5669    1.1437    0.0000 O   0  0
   -1.1183    1.4583    0.0000 C   0  0
   -1.1208    2.0940    0.0000 C   0  0
   -1.6700    2.4086    0.0000 C   0  0
   -2.2127    2.0882    0.0000 C   0  0
   -2.2098    1.4501    0.0000 C   0  0
   -1.6610    1.1384    0.0000 C   0  0
  3  4  2  0
 13 16  1  0
 14 15  1  0
 15 17  1  0
  7  8  1  0
 17 18  1  0
  7  9  2  0
 18 19  2  0
  4  5  1  0
 19 20  1  0
  4 10  1  0
 20 21  2  0
  2  3  1  0
 21 22  1  0
 10 11  2  0
 22 23  2  0
 23 18  1  0
  5  6  2  0
 16 24  1  0
 10 12  1  0
 24 25  1  0
  6  1  1  0
 25 26  2  0
  8 13  1  0
 26 27  1  0
  1  2  2  0
 27 28  2  0
  2  7  1  0
 28 29  1  0
 12 14  1  0
 29 30  2  0
 30 25  1  0
M  END
>  <ID_NEW>
CPDMM2421

>  <pIC50>
4.0

$$$$

  SciTegic12180812242D

 30 32  0  0  0  0            999 V2000
    0.5444    1.2292    0.0000 C   0  0
    0.5432    0.5976    0.0000 C   0  0
    1.0913    0.2765    0.0000 N   0  0
    1.6453    0.5981    0.0000 C   0  0
    1.6424    1.2328    0.0000 C   0  0
    1.0895    1.5461    0.0000 C   0  0
   -0.0049    0.2774    0.0000 C   0  0
   -0.5565    0.5988    0.0000 N   0  0
   -0.0055   -0.3517    0.0000 O   0  0
    2.1938    0.2784    0.0000 C   0  0
    2.1951   -0.3507    0.0000 O   0  0
    2.7451    0.5963    0.0000 N   0  0
   -1.1047    0.2785    0.0000 C   0  0
   -1.6522    0.5999    0.0000 C   0  0
    3.2852    0.2891    0.0000 C   0  0
    3.8406    0.5985    0.0000 C   0  0
   -1.6426    1.2301    0.0000 C   0  0
   -2.1975    1.5472    0.0000 C   0  0
   -2.7467    1.2311    0.0000 C   0  0
   -2.7447    0.5976    0.0000 C   0  0
   -2.1974    0.2885    0.0000 C   0  0
    4.3837    0.2900    0.0000 C   0  0
    4.9345    0.5987    0.0000 C   0  0
    4.9336    1.2329    0.0000 C   0  0
    4.3760    1.5482    0.0000 C   0  0
    3.8322    1.2288    0.0000 C   0  0
   -3.2957    1.5475    0.0000 O   0  0
   -3.2963    2.1811    0.0000 C   0  0
    5.4812    1.5529    0.0000 O   0  0
    5.4779    2.1871    0.0000 C   0  0
  7  9  2  0
 18 19  2  0
  4  5  1  0
 19 20  1  0
  4 10  1  0
 20 21  2  0
 21 14  1  0
  2  3  1  0
 16 22  2  0
 10 11  2  0
 22 23  1  0
  5  6  2  0
 23 24  2  0
 10 12  1  0
 24 25  1  0
  6  1  1  0
 25 26  2  0
 26 16  1  0
  8 13  1  0
  1  2  2  0
 13 14  1  0
  2  7  1  0
 12 15  1  0
  3  4  2  0
 15 16  1  0
 19 27  1  0
  7  8  1  0
 27 28  1  0
 14 17  2  0
 24 29  1  0
 17 18  1  0
 29 30  1  0
M  END
>  <ID_NEW>
CPDMM2422

>  <pIC50>
4.0

$$$$

  SciTegic12180812252D

 30 32  0  0  0  0            999 V2000
   -2.0048    2.8015    0.0000 N   0  0
   -1.9806    2.2542    0.0000 C   0  0
   -1.4935    1.9952    0.0000 C   0  0
   -1.0258    2.3035    0.0000 C   0  0
   -1.0500    2.8497    0.0000 N   0  0
   -1.5459    3.1006    0.0000 C   0  0
   -0.5333    2.0419    0.0000 C   0  0
   -0.5067    1.4887    0.0000 N   0  0
   -0.0683    2.3378    0.0000 O   0  0
   -2.4479    1.9536    0.0000 C   0  0
   -2.9386    2.2086    0.0000 N   0  0
   -2.4233    1.4004    0.0000 O   0  0
   -0.0152    1.2356    0.0000 C   0  0
   -2.9632    2.7578    0.0000 C   0  0
   -3.4580    3.0086    0.0000 C   0  0
   -3.4805    3.5645    0.0000 C   0  0
   -3.9702    3.8184    0.0000 C   0  0
   -4.4296    3.5252    0.0000 C   0  0
   -4.4062    2.9679    0.0000 C   0  0
   -3.9238    2.7164    0.0000 C   0  0
    0.5007    0.4310    0.0000 C   0  0
    0.0115    0.6857    0.0000 C   0  0
   -0.4535    0.3891    0.0000 C   0  0
   -0.4264   -0.1747    0.0000 C   0  0
    0.0675   -0.4231    0.0000 C   0  0
    0.5252   -0.1200    0.0000 C   0  0
   -0.8903   -0.4681    0.0000 C   0  0
   -1.3786   -0.2167    0.0000 F   0  0
   -0.8659   -1.0213    0.0000 F   0  0
   -1.0600    0.0631    0.0000 F   0  0
  2  3  1  0
  2 10  1  0
  1  2  2  0
  3  4  2  0
 10 11  1  0
 10 12  2  0
  6  1  1  0
  4  5  1  0
  4  7  1  0
 11 14  1  0
  7  8  1  0
  7  9  2  0
 14 15  1  0
  8 13  1  0
 15 16  2  0
 20 15  1  0
 13 22  1  0
 16 17  1  0
 19 20  2  0
 17 18  2  0
  5  6  2  0
 18 19  1  0
 26 21  1  0
 21 22  2  0
 23 24  2  0
 24 27  1  0
 24 25  1  0
 27 28  1  0
 22 23  1  0
 27 29  1  0
 25 26  2  0
 27 30  1  0
M  END
>  <ID_NEW>
CPDMM2423

>  <pIC50>
4.0

$$$$

  SciTegic12180812252D

 28 30  0  0  0  0            999 V2000
   -2.0049    2.8390    0.0000 N   0  0
   -1.9807    2.3042    0.0000 C   0  0
   -1.5103    2.0619    0.0000 C   0  0
   -1.0550    2.3492    0.0000 C   0  0
   -1.0793    2.8830    0.0000 N   0  0
   -1.5585    3.1298    0.0000 C   0  0
   -0.5832    2.1003    0.0000 C   0  0
   -0.5609    1.5678    0.0000 N   0  0
   -0.1350    2.3920    0.0000 O   0  0
   -2.4313    2.0162    0.0000 C   0  0
   -2.9011    2.2586    0.0000 N   0  0
   -2.4109    1.4837    0.0000 O   0  0
   -0.0819    1.3272    0.0000 C   0  0
   -2.9299    2.7912    0.0000 C   0  0
   -3.3997    3.0378    0.0000 C   0  0
   -3.4347    3.5770    0.0000 C   0  0
   -3.9036    3.8267    0.0000 C   0  0
   -4.3546    3.5335    0.0000 C   0  0
   -4.3228    3.0013    0.0000 C   0  0
   -3.8531    2.7498    0.0000 C   0  0
    0.4174    0.5433    0.0000 C   0  0
   -0.0553    0.7897    0.0000 C   0  0
   -0.5078    0.4973    0.0000 C   0  0
   -0.4807   -0.0372    0.0000 C   0  0
   -0.0035   -0.2774    0.0000 C   0  0
    0.4502    0.0090    0.0000 C   0  0
    0.0269   -0.8095    0.0000 O   0  0
   -0.4194   -1.1086    0.0000 C   0  0
  2  3  1  0
  2 10  1  0
  1  2  2  0
  3  4  2  0
 10 11  1  0
 10 12  2  0
  6  1  1  0
  4  5  1  0
  4  7  1  0
 11 14  1  0
  7  8  1  0
  7  9  2  0
 14 15  1  0
  8 13  1  0
 15 16  2  0
 20 15  1  0
 13 22  1  0
 16 17  1  0
 19 20  2  0
 17 18  2  0
  5  6  2  0
 18 19  1  0
 22 23  1  0
 25 26  2  0
 26 21  1  0
 21 22  2  0
 23 24  2  0
 25 27  1  0
 24 25  1  0
 27 28  1  0
M  END
>  <ID_NEW>
CPDMM2424

>  <pIC50>
4.0

$$$$

  SciTegic12180812252D

 27 29  0  0  0  0            999 V2000
   -2.0007    2.9016    0.0000 N   0  0
   -1.9806    2.3917    0.0000 C   0  0
   -1.5311    2.1619    0.0000 C   0  0
   -1.1008    2.4368    0.0000 C   0  0
   -1.1251    2.9456    0.0000 N   0  0
   -1.5751    3.1756    0.0000 C   0  0
   -0.6540    2.2003    0.0000 C   0  0
   -0.6275    1.6928    0.0000 N   0  0
   -0.2266    2.4753    0.0000 O   0  0
   -2.4063    2.1204    0.0000 C   0  0
   -2.8553    2.3545    0.0000 N   0  0
   -2.3859    1.6129    0.0000 O   0  0
   -0.1777    1.4647    0.0000 C   0  0
   -2.8799    2.8620    0.0000 C   0  0
   -3.3288    3.0920    0.0000 C   0  0
   -3.3555    3.6021    0.0000 C   0  0
   -3.8036    3.8351    0.0000 C   0  0
   -4.2295    3.5628    0.0000 C   0  0
   -4.2020    3.0555    0.0000 C   0  0
   -3.7572    2.8207    0.0000 C   0  0
    0.2966    0.7225    0.0000 C   0  0
   -0.1511    0.9564    0.0000 C   0  0
   -0.5786    0.6806    0.0000 C   0  0
   -0.5514    0.1710    0.0000 C   0  0
   -0.0992   -0.0564    0.0000 C   0  0
    0.3253    0.2174    0.0000 C   0  0
   -0.9778   -0.1015    0.0000 Cl  0  0
  2  3  1  0
  2 10  1  0
  1  2  2  0
  3  4  2  0
 10 11  1  0
 10 12  2  0
  6  1  1  0
  4  5  1  0
  4  7  1  0
 11 14  1  0
  7  8  1  0
  7  9  2  0
 14 15  1  0
  8 13  1  0
 15 16  2  0
 20 15  1  0
 13 22  1  0
 16 17  1  0
 19 20  2  0
 17 18  2  0
  5  6  2  0
 18 19  1  0
 24 25  1  0
 22 23  1  0
 25 26  2  0
 26 21  1  0
 21 22  2  0
 23 24  2  0
 24 27  1  0
M  END
>  <ID_NEW>
CPDMM2425

>  <pIC50>
4.0

$$$$

  SciTegic12180812242D

 30 32  0  0  0  0            999 V2000
   -1.7056    1.6667    0.0000 N   0  0
   -1.7068    1.1060    0.0000 C   0  0
   -1.2254    0.8224    0.0000 C   0  0
   -0.7381    1.1065    0.0000 C   0  0
   -0.7410    1.6703    0.0000 N   0  0
   -1.2272    1.9462    0.0000 C   0  0
   -2.1883    0.8233    0.0000 C   0  0
   -2.6732    1.1072    0.0000 N   0  0
   -2.1889    0.2650    0.0000 O   0  0
   -0.2521    0.8243    0.0000 C   0  0
   -0.2508    0.2660    0.0000 O   0  0
    0.2284    1.1130    0.0000 N   0  0
   -3.1589    0.8244    0.0000 C   0  0
   -3.6397    1.1083    0.0000 C   0  0
    0.7060    0.8307    0.0000 C   0  0
    1.1947    1.1152    0.0000 C   0  0
   -3.6301    1.6676    0.0000 C   0  0
   -4.1184    1.9473    0.0000 C   0  0
   -4.5989    1.1060    0.0000 C   0  0
   -4.1183    0.8301    0.0000 C   0  0
    1.6712    0.8316    0.0000 C   0  0
    2.1595    1.1154    0.0000 C   0  0
    2.1586    1.6704    0.0000 C   0  0
    1.6635    1.9483    0.0000 C   0  0
    1.1863    1.6663    0.0000 C   0  0
   -4.6042    1.6750    0.0000 C   0  0
   -5.0834    0.8297    0.0000 Cl  0  0
   -4.1157    2.5115    0.0000 Cl  0  0
    1.6605    2.5139    0.0000 Cl  0  0
    2.6487    0.8362    0.0000 Cl  0  0
  7  9  2  0
 18 26  2  0
  4  5  1  0
  4 10  1  0
 19 20  2  0
 20 14  1  0
  2  3  1  0
 16 21  2  0
 10 11  2  0
 21 22  1  0
  5  6  2  0
 22 23  2  0
 10 12  1  0
 23 24  1  0
  6  1  1  0
 24 25  2  0
 25 16  1  0
  8 13  1  0
  1  2  2  0
 13 14  1  0
  2  7  1  0
 12 15  1  0
  3  4  2  0
 19 26  1  0
 15 16  1  0
 19 27  1  0
  7  8  1  0
 18 28  1  0
 14 17  2  0
 24 29  1  0
 17 18  1  0
 22 30  1  0
M  END
>  <ID_NEW>
CPDMM2426

>  <pIC50>
4.0

$$$$

  SciTegic12180812122D

 26 28  0  0  0  0            999 V2000
   -2.5973    3.2751    0.0000 N   0  0
   -2.5985    2.5394    0.0000 C   0  0
   -1.9502    2.1681    0.0000 C   0  0
   -1.3130    2.5399    0.0000 C   0  0
   -1.3159    3.2787    0.0000 N   0  0
   -1.9520    3.6503    0.0000 C   0  0
   -0.6729    2.1701    0.0000 C   0  0
   -3.2383    2.1691    0.0000 C   0  0
   -0.6716    1.4243    0.0000 N   0  0
   -0.0341    2.5379    0.0000 O   0  0
   -3.8774    2.5405    0.0000 O   0  0
   -3.2389    1.4233    0.0000 N   0  0
   -0.0274    1.0587    0.0000 C   0  0
   -0.0261    0.3212    0.0000 C   0  0
   -3.8787    1.0613    0.0000 C   0  0
   -3.8766    0.3247    0.0000 C   0  0
   -0.6608   -0.0465    0.0000 N   0  0
   -0.6597   -0.7834    0.0000 C   0  0
   -0.0222   -1.1517    0.0000 C   0  0
    0.6155   -0.7784    0.0000 N   0  0
    0.6118   -0.0425    0.0000 C   0  0
   -4.5138   -0.0422    0.0000 N   0  0
   -4.5162   -0.7781    0.0000 C   0  0
   -3.8748   -1.1410    0.0000 C   0  0
   -3.2383   -0.7675    0.0000 N   0  0
   -3.2428   -0.0326    0.0000 C   0  0
  1  2  2  0
 13 14  1  0
  4  7  1  0
 14 17  2  0
  3  4  2  0
 17 18  1  0
  2  8  1  0
 18 19  2  0
  7  9  1  0
 19 20  1  0
  4  5  1  0
 20 21  2  0
 21 14  1  0
  7 10  2  0
 16 22  2  0
  2  3  1  0
 22 23  1  0
 12 15  1  0
 23 24  2  0
 15 16  1  0
 24 25  1  0
  8 11  2  0
 25 26  2  0
 26 16  1  0
  5  6  2  0
  8 12  1  0
  6  1  1  0
  9 13  1  0
M  END
>  <ID_NEW>
CPDMM2427

>  <pIC50>
4.0

$$$$

  SciTegic12180812122D

 34 36  0  0  0  0            999 V2000
   -2.2097    2.0459    0.0000 N   0  0
   -2.2109    1.4060    0.0000 C   0  0
   -1.6628    1.0807    0.0000 C   0  0
   -1.1088    1.4065    0.0000 C   0  0
   -1.1117    2.0495    0.0000 N   0  0
   -1.6646    2.3629    0.0000 C   0  0
   -2.7590    1.0816    0.0000 C   0  0
   -3.3106    1.4072    0.0000 N   0  0
   -2.7596    0.4483    0.0000 O   0  0
   -0.5603    1.0826    0.0000 C   0  0
   -0.5590    0.4493    0.0000 O   0  0
   -0.0090    1.4130    0.0000 N   0  0
   -3.8588    1.0827    0.0000 C   0  0
   -4.4063    1.4083    0.0000 C   0  0
    0.5311    1.0890    0.0000 C   0  0
    1.0865    1.4152    0.0000 C   0  0
   -4.3967    2.0468    0.0000 C   0  0
   -4.9516    2.3640    0.0000 C   0  0
   -5.5008    2.0478    0.0000 C   0  0
   -5.4988    1.4060    0.0000 C   0  0
   -4.9515    1.0884    0.0000 C   0  0
    1.6296    1.0899    0.0000 C   0  0
    2.1804    1.4154    0.0000 C   0  0
    2.1795    2.0496    0.0000 C   0  0
    1.6219    2.3650    0.0000 C   0  0
    1.0781    2.0413    0.0000 C   0  0
    1.6277    0.4569    0.0000 C   0  0
   -4.9500    0.4557    0.0000 C   0  0
   -5.4972    0.1380    0.0000 F   0  0
   -4.4012    0.1406    0.0000 F   0  0
   -5.5616    0.6180    0.0000 F   0  0
    1.0786    0.1420    0.0000 F   0  0
    2.1750    0.1387    0.0000 F   0  0
    1.0167    0.6225    0.0000 F   0  0
 19 20  1  0
  4 10  1  0
 20 21  2  0
 21 14  1  0
  2  3  1  0
 16 22  2  0
 10 11  2  0
 22 23  1  0
  5  6  2  0
 23 24  2  0
 10 12  1  0
 24 25  1  0
  6  1  1  0
 25 26  2  0
 26 16  1  0
  8 13  1  0
  1  2  2  0
 13 14  1  0
  2  7  1  0
 12 15  1  0
  3  4  2  0
 22 27  1  0
 15 16  1  0
 21 28  1  0
  7  8  1  0
 28 29  1  0
 14 17  2  0
 28 30  1  0
 17 18  1  0
 28 31  1  0
  7  9  2  0
 27 32  1  0
 18 19  2  0
 27 33  1  0
  4  5  1  0
 27 34  1  0
M  END
>  <ID_NEW>
CPDMM2428

>  <pIC50>
4.0

$$$$

  SciTegic12180812242D

 28 30  0  0  0  0            999 V2000
   -2.3264    2.0376    0.0000 C   0  0
   -2.3276    1.4060    0.0000 C   0  0
   -1.7795    1.0849    0.0000 N   0  0
   -1.2255    1.4065    0.0000 C   0  0
   -1.2284    2.0412    0.0000 C   0  0
   -1.7813    2.3545    0.0000 C   0  0
   -2.8757    1.0858    0.0000 C   0  0
   -3.4273    1.4072    0.0000 N   0  0
   -2.8763    0.4566    0.0000 O   0  0
   -0.6770    1.0868    0.0000 C   0  0
   -0.6757    0.4576    0.0000 O   0  0
   -0.1257    1.4047    0.0000 N   0  0
   -3.9755    1.0869    0.0000 C   0  0
   -4.5230    1.4083    0.0000 C   0  0
    0.4144    1.0974    0.0000 C   0  0
    0.9698    1.4069    0.0000 C   0  0
   -4.5134    2.0385    0.0000 C   0  0
   -5.0683    2.3556    0.0000 C   0  0
   -5.6175    2.0395    0.0000 C   0  0
   -5.6155    1.4060    0.0000 C   0  0
   -5.0682    1.0968    0.0000 C   0  0
    1.5129    1.0983    0.0000 C   0  0
    2.0637    1.4071    0.0000 C   0  0
    2.0628    2.0413    0.0000 C   0  0
    1.5052    2.3566    0.0000 C   0  0
    0.9614    2.0372    0.0000 C   0  0
   -5.0693    2.9947    0.0000 C   0  0
    1.4999    2.9971    0.0000 C   0  0
 14 17  2  0
 17 18  1  0
  7  9  2  0
 18 19  2  0
  4  5  1  0
 19 20  1  0
  4 10  1  0
 20 21  2  0
 21 14  1  0
  2  3  1  0
 16 22  2  0
 10 11  2  0
 22 23  1  0
  5  6  2  0
 23 24  2  0
 10 12  1  0
 24 25  1  0
  6  1  1  0
 25 26  2  0
 26 16  1  0
  8 13  1  0
  1  2  2  0
 13 14  1  0
  2  7  1  0
 12 15  1  0
  3  4  2  0
 15 16  1  0
 18 27  1  0
  7  8  1  0
 25 28  1  0
M  END
>  <ID_NEW>
CPDMM2429

>  <pIC50>
4.0

$$$$

  SciTegic12180812252D

 28 30  0  0  0  0            999 V2000
   -1.8000    2.9131    0.0000 N   0  0
   -1.7830    2.4157    0.0000 C   0  0
   -1.3387    2.1792    0.0000 C   0  0
   -0.9155    2.4474    0.0000 C   0  0
   -0.9368    2.9521    0.0000 N   0  0
   -1.3813    3.1806    0.0000 C   0  0
   -0.4742    2.2209    0.0000 C   0  0
   -0.4505    1.7216    0.0000 N   0  0
   -0.0493    2.4852    0.0000 O   0  0
   -2.2017    2.1426    0.0000 C   0  0
   -2.6452    2.3751    0.0000 N   0  0
   -2.1800    1.6475    0.0000 O   0  0
   -0.0062    1.4909    0.0000 C   0  0
   -2.6669    2.8744    0.0000 C   0  0
   -3.1105    3.1069    0.0000 C   0  0
   -3.1301    3.6046    0.0000 C   0  0
   -3.5685    3.8361    0.0000 C   0  0
   -3.9919    3.5704    0.0000 C   0  0
   -3.9671    3.0671    0.0000 C   0  0
   -3.5279    2.8381    0.0000 C   0  0
   -4.3872    2.8018    0.0000 F   0  0
    0.4598    0.7586    0.0000 C   0  0
    0.0135    0.9909    0.0000 C   0  0
   -0.4073    0.7217    0.0000 C   0  0
   -0.3830    0.2245    0.0000 C   0  0
    0.0637   -0.0055    0.0000 C   0  0
    0.4814    0.2617    0.0000 C   0  0
   -0.8068   -0.0456    0.0000 C   0  0
  2  3  1  0
  2 10  1  0
  1  2  2  0
  3  4  2  0
 10 11  1  0
 10 12  2  0
  6  1  1  0
  4  5  1  0
  4  7  1  0
 11 14  1  0
  7  8  1  0
  7  9  2  0
 14 15  1  0
  8 13  1  0
 20 15  1  0
 15 16  2  0
 13 23  1  0
 19 20  2  0
 16 17  1  0
 18 19  1  0
 19 21  1  0
  5  6  2  0
 17 18  2  0
 25 26  1  0
 23 24  1  0
 26 27  2  0
 27 22  1  0
 22 23  2  0
 24 25  2  0
 25 28  1  0
M  END
>  <ID_NEW>
CPDMM2430

>  <pIC50>
4.0

$$$$

  SciTegic12180812242D

 30 32  0  0  0  0            999 V2000
   -2.3847    1.9876    0.0000 N   0  0
   -2.3859    1.4893    0.0000 C   0  0
   -1.9586    1.2390    0.0000 C   0  0
   -1.5213    1.4898    0.0000 C   0  0
   -1.5242    1.9912    0.0000 N   0  0
   -1.9604    2.2336    0.0000 C   0  0
   -2.8174    1.2399    0.0000 C   0  0
   -3.2523    1.4905    0.0000 N   0  0
   -2.8180    0.7441    0.0000 O   0  0
   -1.0895    1.2409    0.0000 C   0  0
   -1.0882    0.7451    0.0000 O   0  0
   -0.6591    1.4880    0.0000 N   0  0
   -3.6796    1.2410    0.0000 C   0  0
   -4.1106    1.4916    0.0000 C   0  0
   -0.2357    1.2474    0.0000 C   0  0
    0.1990    1.4902    0.0000 C   0  0
    0.6316    1.2367    0.0000 C   0  0
    0.6256    0.7362    0.0000 C   0  0
    1.0535    0.4829    0.0000 C   0  0
    1.4888    0.7257    0.0000 C   0  0
    1.4929    1.2293    0.0000 C   0  0
    1.0646    1.4840    0.0000 C   0  0
   -4.5418    1.2489    0.0000 C   0  0
   -4.9734    1.4986    0.0000 C   0  0
   -5.4082    1.2523    0.0000 C   0  0
   -5.4116    0.7542    0.0000 C   0  0
   -4.9787    0.5037    0.0000 C   0  0
   -4.5458    0.7477    0.0000 C   0  0
   -4.9711    1.9971    0.0000 C   0  0
    1.0689    1.9823    0.0000 C   0  0
  3  4  2  0
 15 16  1  0
 16 17  1  0
  7  8  1  0
 17 18  2  0
  7  9  2  0
 18 19  1  0
  4  5  1  0
 19 20  2  0
  4 10  1  0
 20 21  1  0
  2  3  1  0
 21 22  2  0
 22 17  1  0
 10 11  2  0
 14 23  1  0
  5  6  2  0
 23 24  2  0
 10 12  1  0
 24 25  1  0
  6  1  1  0
 25 26  2  0
  8 13  1  0
 26 27  1  0
  1  2  2  0
 27 28  2  0
 28 23  1  0
 13 14  1  0
  2  7  1  0
 24 29  1  0
 12 15  1  0
 22 30  1  0
M  END
>  <ID_NEW>
CPDMM2431

>  <pIC50>
4.0

$$$$

  SciTegic12180812252D

 28 30  0  0  0  0            999 V2000
   -2.0007    2.9349    0.0000 N   0  0
   -1.9807    2.4417    0.0000 C   0  0
   -1.5436    2.2202    0.0000 C   0  0
   -1.1300    2.4868    0.0000 C   0  0
   -1.1543    2.9789    0.0000 N   0  0
   -1.5877    3.2006    0.0000 C   0  0
   -0.6957    2.2586    0.0000 C   0  0
   -0.6692    1.7720    0.0000 N   0  0
   -0.2808    2.5211    0.0000 O   0  0
   -2.3938    2.1829    0.0000 C   0  0
   -2.8261    2.4045    0.0000 N   0  0
   -2.3692    1.6920    0.0000 O   0  0
   -0.2360    1.5439    0.0000 C   0  0
   -2.8507    2.8953    0.0000 C   0  0
   -3.2872    3.1212    0.0000 C   0  0
   -3.3097    3.6104    0.0000 C   0  0
   -3.7453    3.8393    0.0000 C   0  0
   -4.1546    3.5752    0.0000 C   0  0
   -4.1270    3.0805    0.0000 C   0  0
   -3.6989    2.8623    0.0000 C   0  0
    0.2257    0.8308    0.0000 C   0  0
   -0.2094    1.0564    0.0000 C   0  0
   -0.6245    0.7889    0.0000 C   0  0
   -0.5975    0.3003    0.0000 C   0  0
   -0.1618    0.0726    0.0000 C   0  0
    0.2502    0.3382    0.0000 C   0  0
   -0.1356   -0.4138    0.0000 F   0  0
   -1.0113    0.0319    0.0000 F   0  0
  2  3  1  0
  2 10  1  0
  1  2  2  0
  3  4  2  0
 10 11  1  0
 10 12  2  0
  6  1  1  0
  4  5  1  0
  4  7  1  0
 11 14  1  0
  7  8  1  0
  7  9  2  0
 14 15  1  0
  8 13  1  0
 15 16  2  0
 20 15  1  0
 13 22  1  0
 16 17  1  0
 19 20  2  0
 17 18  2  0
  5  6  2  0
 18 19  1  0
 22 23  1  0
 25 26  2  0
 26 21  1  0
 21 22  2  0
 23 24  2  0
 25 27  1  0
 24 25  1  0
 24 28  1  0
M  END
>  <ID_NEW>
CPDMM2432

>  <pIC50>
4.0

$$$$

  SciTegic12180812252D

 31 33  0  0  0  0            999 V2000
   -1.7875    2.7965    0.0000 N   0  0
   -1.7663    2.2491    0.0000 C   0  0
   -1.2763    1.9918    0.0000 C   0  0
   -0.8114    2.2850    0.0000 C   0  0
   -0.8327    2.8397    0.0000 N   0  0
   -1.3231    3.0974    0.0000 C   0  0
   -0.3200    2.0335    0.0000 C   0  0
   -0.2963    1.4841    0.0000 N   0  0
    0.1465    2.3311    0.0000 O   0  0
   -2.2267    1.9468    0.0000 C   0  0
   -2.7161    2.2043    0.0000 N   0  0
   -2.2050    1.3975    0.0000 O   0  0
    0.1938    1.2326    0.0000 C   0  0
   -2.7378    2.7578    0.0000 C   0  0
   -3.2273    3.0111    0.0000 C   0  0
   -3.2510    3.5630    0.0000 C   0  0
   -3.7393    3.8194    0.0000 C   0  0
   -4.2044    3.5246    0.0000 C   0  0
   -4.1755    2.9754    0.0000 C   0  0
   -3.6945    2.7215    0.0000 C   0  0
   -4.6414    2.6727    0.0000 F   0  0
    0.7097    0.4211    0.0000 C   0  0
    0.2176    0.6784    0.0000 C   0  0
   -0.2490    0.3802    0.0000 C   0  0
   -0.2247   -0.1670    0.0000 C   0  0
    0.2719   -0.4265    0.0000 C   0  0
    0.7354   -0.1258    0.0000 C   0  0
   -0.6861   -0.4705    0.0000 C   0  0
   -1.1772   -0.2164    0.0000 F   0  0
   -0.6605   -1.0196    0.0000 F   0  0
   -0.8572    0.0574    0.0000 F   0  0
  2  3  1  0
  2 10  1  0
  1  2  2  0
  3  4  2  0
 10 11  1  0
 10 12  2  0
  6  1  1  0
  4  5  1  0
  4  7  1  0
 11 14  1  0
  7  8  1  0
  7  9  2  0
 14 15  1  0
  8 13  1  0
 20 15  1  0
 15 16  2  0
 13 23  1  0
 19 20  2  0
 16 17  1  0
 18 19  1  0
 19 21  1  0
  5  6  2  0
 17 18  2  0
 27 22  1  0
 22 23  2  0
 24 25  2  0
 25 28  1  0
 25 26  1  0
 28 29  1  0
 23 24  1  0
 28 30  1  0
 26 27  2  0
 28 31  1  0
M  END
>  <ID_NEW>
CPDMM2433

>  <pIC50>
4.0

$$$$

  SciTegic12180812242D

 26 28  0  0  0  0            999 V2000
   -2.3264    2.1459    0.0000 C   0  0
   -2.3276    1.5143    0.0000 C   0  0
   -1.7795    1.1932    0.0000 N   0  0
   -1.2255    1.5148    0.0000 C   0  0
   -1.2284    2.1495    0.0000 C   0  0
   -1.7813    2.4628    0.0000 C   0  0
   -2.8757    1.1941    0.0000 C   0  0
   -3.4273    1.5155    0.0000 N   0  0
   -2.8763    0.5608    0.0000 O   0  0
   -0.6770    1.1951    0.0000 C   0  0
   -0.6757    0.5618    0.0000 O   0  0
   -0.1257    1.5130    0.0000 N   0  0
   -3.9755    1.1952    0.0000 C   0  0
   -4.5230    1.5166    0.0000 C   0  0
    0.4144    1.2016    0.0000 C   0  0
    0.9698    1.5152    0.0000 C   0  0
   -4.5134    2.1468    0.0000 C   0  0
   -5.0683    2.4639    0.0000 C   0  0
   -5.6175    2.1478    0.0000 C   0  0
   -5.6155    1.5143    0.0000 C   0  0
   -5.0682    1.2010    0.0000 C   0  0
    1.5129    1.2025    0.0000 C   0  0
    2.0637    1.5154    0.0000 C   0  0
    2.0628    2.1496    0.0000 C   0  0
    1.5052    2.4649    0.0000 C   0  0
    0.9614    2.1455    0.0000 C   0  0
  7  8  1  0
 14 17  2  0
 17 18  1  0
  7  9  2  0
 18 19  2  0
  4  5  1  0
 19 20  1  0
  4 10  1  0
 20 21  2  0
 21 14  1  0
  2  3  1  0
 16 22  2  0
 10 11  2  0
 22 23  1  0
  5  6  2  0
 23 24  2  0
 10 12  1  0
 24 25  1  0
  6  1  1  0
 25 26  2  0
 26 16  1  0
  8 13  1  0
  1  2  2  0
 13 14  1  0
  2  7  1  0
 12 15  1  0
  3  4  2  0
 15 16  1  0
M  END
>  <ID_NEW>
CPDMM2434

>  <pIC50>
4.0

$$$$

  SciTegic12180812242D

 28 30  0  0  0  0            999 V2000
   -2.3264    2.0376    0.0000 C   0  0
   -2.3276    1.4060    0.0000 C   0  0
   -1.7795    1.0849    0.0000 N   0  0
   -1.2255    1.4065    0.0000 C   0  0
   -1.2284    2.0412    0.0000 C   0  0
   -1.7813    2.3545    0.0000 C   0  0
   -2.8757    1.0858    0.0000 C   0  0
   -3.4273    1.4072    0.0000 N   0  0
   -2.8763    0.4566    0.0000 O   0  0
   -0.6770    1.0868    0.0000 C   0  0
   -0.6757    0.4576    0.0000 O   0  0
   -0.1257    1.4047    0.0000 N   0  0
   -3.9755    1.0869    0.0000 C   0  0
   -4.5230    1.4083    0.0000 C   0  0
    0.4144    1.0974    0.0000 C   0  0
    0.9698    1.4069    0.0000 C   0  0
   -4.5134    2.0385    0.0000 C   0  0
   -5.0683    2.3556    0.0000 C   0  0
   -5.6175    2.0395    0.0000 C   0  0
   -5.6155    1.4060    0.0000 C   0  0
   -5.0682    1.0968    0.0000 C   0  0
    1.5129    1.0983    0.0000 C   0  0
    2.0637    1.4071    0.0000 C   0  0
    2.0628    2.0413    0.0000 C   0  0
    1.5052    2.3566    0.0000 C   0  0
    0.9614    2.0372    0.0000 C   0  0
    1.4999    2.9971    0.0000 Cl  0  0
   -5.0693    2.9947    0.0000 Cl  0  0
 14 17  2  0
 17 18  1  0
  7  9  2  0
 18 19  2  0
  4  5  1  0
 19 20  1  0
  4 10  1  0
 20 21  2  0
 21 14  1  0
  2  3  1  0
 16 22  2  0
 10 11  2  0
 22 23  1  0
  5  6  2  0
 23 24  2  0
 10 12  1  0
 24 25  1  0
  6  1  1  0
 25 26  2  0
 26 16  1  0
  8 13  1  0
  1  2  2  0
 13 14  1  0
  2  7  1  0
 12 15  1  0
  3  4  2  0
 15 16  1  0
 25 27  1  0
  7  8  1  0
 18 28  1  0
M  END
>  <ID_NEW>
CPDMM2435

>  <pIC50>
4.0

$$$$

  SciTegic12180812192D

 36 38  0  0  0  0            999 V2000
   -0.0680    0.4584    0.0000 N   0  0
   -0.0692   -0.1732    0.0000 C   0  0
    0.4788   -0.4943    0.0000 C   0  0
    1.0329   -0.1727    0.0000 C   0  0
    1.0300    0.4620    0.0000 N   0  0
    0.4770    0.7753    0.0000 C   0  0
   -0.6174   -0.4934    0.0000 C   0  0
   -1.1690   -0.1720    0.0000 N   0  0
   -0.6180   -1.1267    0.0000 O   0  0
    1.5813   -0.4924    0.0000 C   0  0
    1.5826   -1.1257    0.0000 O   0  0
    2.1326   -0.1745    0.0000 N   0  0
   -1.7171   -0.4923    0.0000 C   0  0
   -2.2647   -0.1709    0.0000 C   0  0
    2.6727   -0.4859    0.0000 C   0  0
    3.2281   -0.1723    0.0000 C   0  0
   -2.2550    0.4593    0.0000 C   0  0
   -2.8100    0.7764    0.0000 C   0  0
   -3.3591    0.4603    0.0000 C   0  0
   -3.3571   -0.1732    0.0000 C   0  0
   -2.8099   -0.4865    0.0000 C   0  0
    3.7712   -0.4850    0.0000 C   0  0
    4.3221   -0.1721    0.0000 C   0  0
    4.3212    0.4621    0.0000 C   0  0
    3.7635    0.7774    0.0000 C   0  0
    3.2198    0.4580    0.0000 C   0  0
   -3.9046   -0.4917    0.0000 C   0  0
   -4.4543   -0.1769    0.0000 F   0  0
   -3.9025   -1.1252    0.0000 F   0  0
   -4.0706    0.1196    0.0000 F   0  0
   -3.9082    0.7766    0.0000 F   0  0
    4.8698   -0.4904    0.0000 C   0  0
    4.8681   -1.1240    0.0000 F   0  0
    5.4194   -0.1752    0.0000 F   0  0
    4.4206   -0.9372    0.0000 F   0  0
    4.8688    0.7820    0.0000 F   0  0
 21 14  1  0
  2  3  1  0
 16 22  2  0
 10 11  2  0
 22 23  1  0
  5  6  2  0
 23 24  2  0
 10 12  1  0
 24 25  1  0
  6  1  1  0
 25 26  2  0
 26 16  1  0
  8 13  1  0
  1  2  2  0
 13 14  1  0
  2  7  1  0
 12 15  1  0
  3  4  2  0
 15 16  1  0
 20 27  1  0
  7  8  1  0
 27 28  1  0
 14 17  2  0
 27 29  1  0
 17 18  1  0
 27 30  1  0
  7  9  2  0
 19 31  1  0
 18 19  2  0
 23 32  1  0
  4  5  1  0
 32 33  1  0
 19 20  1  0
 32 34  1  0
  4 10  1  0
 32 35  1  0
 20 21  2  0
 24 36  1  0
M  END
>  <ID_NEW>
CPDMM2436

>  <pIC50>
4.0

$$$$

  SciTegic12180812192D

 30 32  0  0  0  0            999 V2000
    1.3403    1.2084    0.0000 N   0  0
    1.3391    0.5768    0.0000 C   0  0
    1.8872    0.2557    0.0000 C   0  0
    2.4412    0.5773    0.0000 C   0  0
    2.4383    1.2120    0.0000 N   0  0
    1.8854    1.5253    0.0000 C   0  0
    0.7909    0.2566    0.0000 C   0  0
    0.2394    0.5780    0.0000 N   0  0
    0.7903   -0.3767    0.0000 O   0  0
    2.9897    0.2576    0.0000 C   0  0
    2.9910   -0.3757    0.0000 O   0  0
    3.5409    0.5755    0.0000 N   0  0
   -0.3088    0.2577    0.0000 C   0  0
   -0.8564    0.5791    0.0000 C   0  0
    4.0810    0.2641    0.0000 C   0  0
    4.6365    0.5777    0.0000 C   0  0
    5.1858    0.2534    0.0000 C   0  0
    5.1756   -0.3846    0.0000 C   0  0
    5.7243   -0.7088    0.0000 C   0  0
    6.2805   -0.3951    0.0000 C   0  0
    6.2846    0.2460    0.0000 C   0  0
    5.7354    0.5673    0.0000 C   0  0
   -1.4085    0.2656    0.0000 C   0  0
   -1.9567    0.5861    0.0000 C   0  0
   -2.5082    0.2731    0.0000 C   0  0
   -2.5116   -0.3625    0.0000 C   0  0
   -1.9620   -0.6838    0.0000 C   0  0
   -1.4125   -0.3690    0.0000 C   0  0
    6.8418    0.5632    0.0000 C   0  0
   -3.0552    0.5936    0.0000 C   0  0
 12 15  1  0
  3  4  2  0
 15 16  1  0
 16 17  1  0
  7  8  1  0
 17 18  2  0
  7  9  2  0
 18 19  1  0
  4  5  1  0
 19 20  2  0
  4 10  1  0
 20 21  1  0
  2  3  1  0
 21 22  2  0
 22 17  1  0
 10 11  2  0
 14 23  1  0
  5  6  2  0
 23 24  2  0
 10 12  1  0
 24 25  1  0
  6  1  1  0
 25 26  2  0
  8 13  1  0
 26 27  1  0
  1  2  2  0
 27 28  2  0
 28 23  1  0
 13 14  1  0
 21 29  1  0
  2  7  1  0
 25 30  1  0
M  END
>  <ID_NEW>
CPDMM2437

>  <pIC50>
4.0

$$$$

  SciTegic12180812122D

 30 32  0  0  0  0            999 V2000
    0.4319    1.1084    0.0000 N   0  0
    0.4307    0.4685    0.0000 C   0  0
    0.9788    0.1432    0.0000 C   0  0
    1.5328    0.4690    0.0000 C   0  0
    1.5299    1.1120    0.0000 N   0  0
    0.9770    1.4254    0.0000 C   0  0
   -0.1174    0.1441    0.0000 C   0  0
   -0.6690    0.4697    0.0000 N   0  0
   -0.1180   -0.4892    0.0000 O   0  0
    2.0813    0.1451    0.0000 C   0  0
    2.0826   -0.4882    0.0000 O   0  0
    2.6326    0.4755    0.0000 N   0  0
   -1.2172    0.1452    0.0000 C   0  0
   -1.7647    0.4708    0.0000 C   0  0
    3.1727    0.1515    0.0000 C   0  0
    3.7281    0.4777    0.0000 C   0  0
   -1.7551    1.1093    0.0000 C   0  0
   -2.3100    1.4265    0.0000 C   0  0
   -2.8572    0.4685    0.0000 C   0  0
   -2.3099    0.1509    0.0000 C   0  0
    4.2712    0.1524    0.0000 C   0  0
    4.8220    0.4779    0.0000 C   0  0
    4.8211    1.1121    0.0000 C   0  0
    4.2635    1.4275    0.0000 C   0  0
    3.7197    1.1038    0.0000 C   0  0
   -2.8625    1.1167    0.0000 C   0  0
   -3.4042    0.1505    0.0000 F   0  0
   -2.3073    2.0657    0.0000 F   0  0
    4.2564    2.0681    0.0000 F   0  0
    5.3779    0.1612    0.0000 F   0  0
  7  9  2  0
 18 26  2  0
  4  5  1  0
  4 10  1  0
 19 20  2  0
 20 14  1  0
  2  3  1  0
 16 21  2  0
 10 11  2  0
 21 22  1  0
  5  6  2  0
 22 23  2  0
 10 12  1  0
 23 24  1  0
  6  1  1  0
 24 25  2  0
 25 16  1  0
  8 13  1  0
  1  2  2  0
 13 14  1  0
  2  7  1  0
 12 15  1  0
  3  4  2  0
 19 26  1  0
 15 16  1  0
 19 27  1  0
  7  8  1  0
 18 28  1  0
 14 17  2  0
 24 29  1  0
 17 18  1  0
 22 30  1  0
M  END
>  <ID_NEW>
CPDMM2438

>  <pIC50>
4.0

$$$$

  SciTegic12180813492D

 26 28  0  0  0  0            999 V2000
    2.4652   -0.3000    0.0000 C   0  0
    2.4641   -1.0398    0.0000 C   0  0
    3.1039   -1.4110    0.0000 C   0  0
    3.7494   -1.0394    0.0000 C   0  0
    3.7466   -0.2921    0.0000 C   0  0
    3.1021    0.0753    0.0000 C   0  0
    1.8243   -1.4101    0.0000 C   0  0
    1.1851   -1.0387    0.0000 N   0  0
    1.8236   -2.1476    0.0000 O   0  0
    4.3855   -1.4090    0.0000 C   0  0
    4.3867   -2.1465    0.0000 O   0  0
    5.0284   -1.0329    0.0000 N   0  0
    5.6667   -1.4000    0.0000 C   0  0
    6.3042   -1.0292    0.0000 C   0  0
    0.5417   -1.4042    0.0000 C   0  0
   -0.1000   -1.0333    0.0000 C   0  0
   -0.0972   -0.2913    0.0000 C   0  0
   -0.7381    0.0795    0.0000 C   0  0
   -1.3810   -0.2908    0.0000 C   0  0
   -1.3789   -1.0358    0.0000 C   0  0
   -0.7375   -1.4032    0.0000 C   0  0
    6.9437   -1.3985    0.0000 C   0  0
    7.5807   -1.0283    0.0000 C   0  0
    7.5787   -0.2900    0.0000 C   0  0
    6.9343    0.0766    0.0000 C   0  0
    6.2999   -0.2958    0.0000 C   0  0
 12 13  1  0
  1  2  2  0
 13 14  1  0
  2  7  1  0
  8 15  1  0
  3  4  2  0
 15 16  1  0
  7  8  1  0
 16 17  2  0
  7  9  2  0
 17 18  1  0
  4  5  1  0
 18 19  2  0
  4 10  1  0
 19 20  1  0
  2  3  1  0
 20 21  2  0
 21 16  1  0
 10 11  2  0
 14 22  2  0
  5  6  2  0
 22 23  1  0
 10 12  1  0
 23 24  2  0
  6  1  1  0
 24 25  1  0
 25 26  2  0
 26 14  1  0
M  END
>  <ID_NEW>
CPDMM2439

>  <pIC50>
4.0

$$$$

  SciTegic12180812252D

 27 29  0  0  0  0            999 V2000
   -2.0131    2.6433    0.0000 N   0  0
   -1.9847    2.0168    0.0000 C   0  0
   -1.4310    1.7245    0.0000 C   0  0
   -0.8966    2.0618    0.0000 C   0  0
   -0.9334    2.6955    0.0000 N   0  0
   -1.4917    2.9839    0.0000 C   0  0
   -0.3457    1.7753    0.0000 C   0  0
   -0.3150    1.1471    0.0000 N   0  0
    0.1818    2.1212    0.0000 O   0  0
   -2.5188    1.6746    0.0000 C   0  0
   -3.0718    1.9587    0.0000 N   0  0
   -2.4900    1.0505    0.0000 O   0  0
    0.2473    0.8606    0.0000 C   0  0
   -3.1006    2.5911    0.0000 C   0  0
   -3.6579    2.8796    0.0000 C   0  0
   -3.6847    3.5104    0.0000 C   0  0
   -4.2452    3.7935    0.0000 C   0  0
   -4.7669    3.4586    0.0000 C   0  0
   -4.7395    2.8264    0.0000 C   0  0
   -4.1821    2.5457    0.0000 C   0  0
    0.8340   -0.0566    0.0000 C   0  0
    0.2781    0.2315    0.0000 C   0  0
   -0.2494   -0.1067    0.0000 C   0  0
   -0.2182   -0.7330    0.0000 C   0  0
    0.3425   -1.0189    0.0000 C   0  0
    0.8628   -0.6824    0.0000 C   0  0
   -0.7486   -1.0764    0.0000 C   0  0
  2  3  1  0
  2 10  1  0
  1  2  2  0
  3  4  2  0
 10 11  1  0
 10 12  2  0
  6  1  1  0
  4  5  1  0
  4  7  1  0
 11 14  1  0
  7  8  1  0
  7  9  2  0
 14 15  1  0
  8 13  1  0
 15 16  2  0
 20 15  1  0
 13 22  1  0
 16 17  1  0
 19 20  2  0
 17 18  2  0
  5  6  2  0
 18 19  1  0
 24 25  1  0
 22 23  1  0
 25 26  2  0
 26 21  1  0
 21 22  2  0
 23 24  2  0
 24 27  1  0
M  END
>  <ID_NEW>
CPDMM2440

>  <pIC50>
4.0

$$$$

  SciTegic12180812252D

 27 29  0  0  0  0            999 V2000
   -2.0090    2.7891    0.0000 N   0  0
   -1.9806    2.2334    0.0000 C   0  0
   -1.4894    1.9786    0.0000 C   0  0
   -1.0175    2.2785    0.0000 C   0  0
   -1.0459    2.8372    0.0000 N   0  0
   -1.5418    3.0923    0.0000 C   0  0
   -0.5248    2.0211    0.0000 C   0  0
   -0.4942    1.4678    0.0000 N   0  0
   -0.0557    2.3212    0.0000 O   0  0
   -2.4521    1.9329    0.0000 C   0  0
   -2.9469    2.1878    0.0000 N   0  0
   -2.4275    1.3754    0.0000 O   0  0
   -0.0026    1.2106    0.0000 C   0  0
   -2.9715    2.7454    0.0000 C   0  0
   -3.4663    3.0004    0.0000 C   0  0
   -3.4930    3.5604    0.0000 C   0  0
   -3.9869    3.8185    0.0000 C   0  0
   -4.4545    3.5169    0.0000 C   0  0
   -4.4228    2.9597    0.0000 C   0  0
   -3.9363    2.7040    0.0000 C   0  0
    0.5217    0.3975    0.0000 C   0  0
    0.0240    0.6522    0.0000 C   0  0
   -0.4411    0.3515    0.0000 C   0  0
   -0.4140   -0.2038    0.0000 C   0  0
    0.0841   -0.4607    0.0000 C   0  0
    0.5503   -0.1576    0.0000 C   0  0
    0.1145   -1.0178    0.0000 F   0  0
  2  3  1  0
  2 10  1  0
  1  2  2  0
  3  4  2  0
 10 11  1  0
 10 12  2  0
  6  1  1  0
  4  5  1  0
  4  7  1  0
 11 14  1  0
  7  8  1  0
  7  9  2  0
 14 15  1  0
  8 13  1  0
 15 16  2  0
 20 15  1  0
 13 22  1  0
 16 17  1  0
 19 20  2  0
 17 18  2  0
  5  6  2  0
 18 19  1  0
 24 25  1  0
 22 23  1  0
 25 26  2  0
 26 21  1  0
 21 22  2  0
 23 24  2  0
 25 27  1  0
M  END
>  <ID_NEW>
CPDMM2441

>  <pIC50>
4.0

$$$$
