
  -MTS-   10172316532D 0   0.00000     0.00000     0

 36 39  0  0  1  0  0  0  0  0999 V2000
   -3.8500    2.6320    0.0000 C   0  0  0  0  0  0  0  0  0  0  0  0
   -4.2420    2.5730    0.0000 C   0  0  0  0  0  0  0  0  0  0  0  0
   -3.6280    2.9790    0.0000 S   0  0  0  0  0  0  0  0  0  0  0  0
   -3.5790    2.3220    0.0000 N   0  0  0  0  0  0  0  0  0  0  0  0
   -4.3950    2.2060    0.0000 C   0  0  0  0  0  0  0  0  0  0  0  0
   -4.4850    2.8970    0.0000 C   0  0  0  0  0  0  0  0  0  0  0  0
   -3.2440    2.8830    0.0000 C   0  0  0  0  0  0  0  0  0  0  0  0
   -3.2070    2.4680    0.0000 C   0  0  0  0  0  0  0  0  0  0  0  0
   -4.7930    2.1480    0.0000 C   0  0  0  0  0  0  0  0  0  0  0  0
   -4.8950    2.8440    0.0000 C   0  0  0  0  0  0  0  0  0  0  0  0
   -2.9250    3.1530    0.0000 C   0  0  1  0  0  0  0  0  0  0  0  0
   -2.8550    2.2370    0.0000 C   0  0  0  0  0  0  0  0  0  0  0  0
   -5.0390    2.4740    0.0000 C   0  0  0  0  0  0  0  0  0  0  0  0
   -2.5530    3.0100    0.0000 O   0  0  0  0  0  0  0  0  0  0  0  0
   -5.4340    2.4190    0.0000 C   0  0  0  0  0  0  0  0  0  0  0  0
   -5.8330    2.3910    0.0000 F   0  0  0  0  0  0  0  0  0  0  0  0
   -5.4000    2.0220    0.0000 F   0  0  0  0  0  0  0  0  0  0  0  0
   -5.4670    2.8250    0.0000 F   0  0  0  0  0  0  0  0  0  0  0  0
   -2.1460    3.0120    0.0000 C   0  0  0  0  0  0  0  0  0  0  0  0
   -1.9390    2.6690    0.0000 C   0  0  0  0  0  0  0  0  0  0  0  0
   -1.5490    2.6670    0.0000 C   0  0  0  0  0  0  0  0  0  0  0  0
   -1.3470    3.0100    0.0000 C   0  0  0  0  0  0  0  0  0  0  0  0
   -1.5480    3.3680    0.0000 C   0  0  0  0  0  0  0  0  0  0  0  0
   -1.9420    3.3670    0.0000 C   0  0  0  0  0  0  0  0  0  0  0  0
   -1.3480    2.3240    0.0000 O   0  0  0  0  0  0  0  0  0  0  0  0
   -0.9390    3.0090    0.0000 C   0  0  0  0  0  0  0  0  0  0  0  0
   -0.7450    2.6700    0.0000 N   0  0  0  0  0  0  0  0  0  0  0  0
   -0.7440    3.3690    0.0000 N   0  0  0  0  0  0  0  0  0  0  0  0
   -0.2740    3.2630    0.0000 O   0  0  0  0  0  0  0  0  0  0  0  0
   -0.2710    2.7890    0.0000 C   0  0  0  0  0  0  0  0  0  0  0  0
   -0.0100    2.5490    0.0000 O   0  0  0  0  0  0  0  0  0  0  0  0
   -1.2330    1.8740    0.0000 C   0  0  0  0  0  0  0  0  0  0  0  0
   -1.4510    1.4990    0.0000 F   0  0  0  0  0  0  0  0  0  0  0  0
   -0.7830    1.7370    0.0000 F   0  0  0  0  0  0  0  0  0  0  0  0
   -2.6720    3.8320    0.0000 C   0  0  0  0  0  0  0  0  0  0  0  0
   -3.0330    3.5580    0.0000 C   0  0  0  0  0  0  0  0  0  0  0  0
 26 27  1  0  0  0  0
 26 28  2  0  0  0  0
 28 29  1  0  0  0  0
 27 30  1  0  0  0  0
 30 31  2  0  0  0  0
 29 30  1  0  0  0  0
 32 33  1  0  0  0  0
  1  2  1  0  0  0  0
 32 34  1  0  0  0  0
 25 32  1  0  0  0  0
  1  3  1  0  0  0  0
  1  4  2  0  0  0  0
 36 35  1  0  0  0  0
  2  5  1  0  0  0  0
  2  6  2  0  0  0  0
  3  7  1  0  0  0  0
  4  8  1  0  0  0  0
  5  9  2  0  0  0  0
  6 10  1  0  0  0  0
  7 11  1  0  0  0  0
  8 12  1  0  0  0  0
  9 13  1  0  0  0  0
 11 14  1  0  0  0  0
 13 15  1  0  0  0  0
 15 16  1  0  0  0  0
 15 17  1  0  0  0  0
 15 18  1  0  0  0  0
  7  8  2  0  0  0  0
 10 13  2  0  0  0  0
 14 19  1  0  0  0  0
 19 20  2  0  0  0  0
 20 21  1  0  0  0  0
 21 22  2  0  0  0  0
 22 23  1  0  0  0  0
 23 24  2  0  0  0  0
 24 19  1  0  0  0  0
 21 25  1  0  0  0  0
 22 26  1  0  0  0  0
 11 36  1  6  0  0  0
M  END
>  <ID_NEW>
CPDPP3001

>  <pEC50>
10.000043438136396

$$$$

  SciTegic12180813062D

 34 37  0  0  0  0            999 V2000
    2.9617   -0.2845    0.0000 C   0  0
    3.0042   -1.1634    0.0000 N   0  0
    3.8561   -1.3971    0.0000 O   0  0
    4.3417   -0.6590    0.0000 C   0  0
    3.7897    0.0307    0.0000 N   0  0
    5.2242   -0.6180    0.0000 O   0  0
    2.3176    0.9883    0.0000 C   0  0
    1.6270    1.4440    0.0000 C   0  0
    0.8891    1.0737    0.0000 C   0  0
    0.8408    0.2480    0.0000 C   0  0
    1.5362   -0.2060    0.0000 C   0  0
    2.2711    0.1668    0.0000 C   0  0
    0.2000    1.5273    0.0000 O   0  0
   -4.4014    1.6625    0.0000 C   0  0
   -4.4026    0.8352    0.0000 C   0  0
   -3.6878    0.4223    0.0000 C   0  0
   -2.9713    0.8356    0.0000 C   0  0
   -2.9742    1.6662    0.0000 C   0  0
   -3.6896    2.0753    0.0000 C   0  0
   -5.1208    0.4292    0.0000 C   0  0
   -5.8315    0.8482    0.0000 F   0  0
   -5.1283   -0.3958    0.0000 F   0  0
   -5.3271    1.2280    0.0000 F   0  0
   -2.2613    2.0814    0.0000 C   0  0
   -1.5086    1.7470    0.0000 S   0  0
   -0.9589    2.3622    0.0000 C   0  0
   -1.3741    3.0751    0.0000 C   0  0
   -2.1804    2.9004    0.0000 N   0  0
   -1.0414    3.8301    0.0000 C   0  0
   -0.1381    2.2790    0.0000 C   0  0
    0.3443    2.9483    0.0000 C   0  0
    1.1651    2.8651    0.0000 C   0  0
    1.4913   -1.0298    0.0000 C   0  0
    0.7554   -1.4028    0.0000 C   0  0
  1  2  2  0
  2  3  1  0
  3  4  1  0
  4  5  1  0
  5  1  1  0
  4  6  2  0
  7  8  2  0
  8  9  1  0
  9 10  2  0
 10 11  1  0
 11 12  2  0
 12  7  1  0
 12  1  1  0
  9 13  1  0
 14 15  2  0
 15 16  1  0
 16 17  2  0
 17 18  1  0
 18 19  2  0
 19 14  1  0
 15 20  1  0
 20 21  1  0
 20 22  1  0
 20 23  1  0
 18 24  1  0
 24 25  1  0
 25 26  1  0
 26 27  2  0
 27 28  1  0
 28 24  2  0
 27 29  1  0
 26 30  1  0
 30 13  1  0
 30 31  1  0
 31 32  1  0
 11 33  1  0
 33 34  1  0
M  END
>  <ID_NEW>
CPDPP3002

>  <pEC50>
9.876509918108987

$$$$

  -MTS-   10172316532D 0   0.00000     0.00000     0

 33 36  0  0  1  0  0  0  0  0999 V2000
    9.0800   -4.1050    0.0000 C   0  0  0  0  0  0  0  0  0  0  0  0
    9.5650   -4.7750    0.0000 N   0  0  0  0  0  0  0  0  0  0  0  0
   10.3510   -4.5220    0.0000 O   0  0  0  0  0  0  0  0  0  0  0  0
   10.3510   -3.6970    0.0000 C   0  0  0  0  0  0  0  0  0  0  0  0
    9.5670   -3.4410    0.0000 N   0  0  0  0  0  0  0  0  0  0  0  0
   11.0200   -3.2130    0.0000 O   0  0  0  0  0  0  0  0  0  0  0  0
    8.2530   -4.1050    0.0000 C   0  0  0  0  0  0  0  0  0  0  0  0
    6.6070   -4.1860    0.0000 C   0  0  0  0  0  0  0  0  0  0  0  0
    7.0480   -4.8800    0.0000 C   0  0  0  0  0  0  0  0  0  0  0  0
    7.8720   -4.8800    0.0000 C   0  0  0  0  0  0  0  0  0  0  0  0
    7.8010   -3.4120    0.0000 C   0  0  0  0  0  0  0  0  0  0  0  0
    6.9800   -3.4120    0.0000 C   0  0  0  0  0  0  0  0  0  0  0  0
    8.1780   -2.6780    0.0000 Cl  0  0  0  0  0  0  0  0  0  0  0  0
    5.7830   -4.1860    0.0000 O   0  0  0  0  0  0  0  0  0  0  0  0
    3.1670   -5.0960    0.0000 C   0  0  0  0  0  0  0  0  0  0  0  0
    3.9300   -5.4260    0.0000 S   0  0  0  0  0  0  0  0  0  0  0  0
    4.4800   -4.8110    0.0000 C   0  0  0  0  0  0  0  0  0  0  0  0
    4.0640   -4.0990    0.0000 C   0  0  0  0  0  0  0  0  0  0  0  0
    3.2500   -4.2730    0.0000 N   0  0  0  0  0  0  0  0  0  0  0  0
    4.3970   -3.3440    0.0000 C   0  0  0  0  0  0  0  0  0  0  0  0
    5.3000   -4.8950    0.0000 C   0  0  1  0  0  0  0  0  0  0  0  0
    2.4550   -5.5150    0.0000 C   0  0  0  0  0  0  0  0  0  0  0  0
    1.7400   -5.1040    0.0000 C   0  0  0  0  0  0  0  0  0  0  0  0
    1.0340   -5.5220    0.0000 C   0  0  0  0  0  0  0  0  0  0  0  0
    1.0340   -6.3490    0.0000 C   0  0  0  0  0  0  0  0  0  0  0  0
    1.7570   -6.7560    0.0000 C   0  0  0  0  0  0  0  0  0  0  0  0
    2.4550   -6.3360    0.0000 C   0  0  0  0  0  0  0  0  0  0  0  0
    0.3230   -6.7680    0.0000 C   0  0  0  0  0  0  0  0  0  0  0  0
   -0.3950   -6.3610    0.0000 F   0  0  0  0  0  0  0  0  0  0  0  0
    0.3230   -7.5930    0.0000 F   0  0  0  0  0  0  0  0  0  0  0  0
    0.1020   -5.9730    0.0000 F   0  0  0  0  0  0  0  0  0  0  0  0
    5.6390   -5.6470    0.0000 C   0  0  0  0  0  0  0  0  0  0  0  0
    5.5570   -6.4670    0.0000 C   0  0  0  0  0  0  0  0  0  0  0  0
  7  1  1  0  0  0  0
  1  2  2  0  0  0  0
  2  3  1  0  0  0  0
  3  4  1  0  0  0  0
  4  5  1  0  0  0  0
  5  1  1  0  0  0  0
  4  6  2  0  0  0  0
 18 20  1  0  0  0  0
 17 21  1  0  0  0  0
 21 14  1  0  0  0  0
 15 16  1  0  0  0  0
 16 17  1  0  0  0  0
 17 18  2  0  0  0  0
 18 19  1  0  0  0  0
 19 15  2  0  0  0  0
 15 22  1  0  0  0  0
  8  9  2  0  0  0  0
  9 10  1  0  0  0  0
 10  7  2  0  0  0  0
  7 11  1  0  0  0  0
 11 12  2  0  0  0  0
 12  8  1  0  0  0  0
 11 13  1  0  0  0  0
  8 14  1  0  0  0  0
 22 23  2  0  0  0  0
 23 24  1  0  0  0  0
 24 25  2  0  0  0  0
 25 26  1  0  0  0  0
 26 27  2  0  0  0  0
 27 22  1  0  0  0  0
 25 28  1  0  0  0  0
 28 29  1  0  0  0  0
 28 30  1  0  0  0  0
 28 31  1  0  0  0  0
 21 32  1  6  0  0  0
 33 32  1  0  0  0  0
M  END
>  <ID_NEW>
CPDPP3003

>  <pEC50>
9.871299770255815

$$$$

  SciTegic12180813062D

 41 45  0  0  0  0            999 V2000
   -2.2498   -0.5055    0.0000 C   0  0
   -2.9655   -0.9159    0.0000 C   0  0
   -2.9726   -1.7396    0.0000 C   0  0
   -3.6746   -0.5015    0.0000 C   0  0
   -4.3927   -0.9083    0.0000 C   0  0
   -4.3971   -1.7343    0.0000 C   0  0
   -3.6834   -2.1534    0.0000 N   0  0
   -5.1142   -2.1423    0.0000 C   0  0
   -5.8260   -1.7252    0.0000 F   0  0
   -5.1194   -2.9672    0.0000 F   0  0
   -5.8333   -2.5500    0.0000 F   0  0
   -1.4968   -0.8418    0.0000 S   0  0
   -0.9429   -0.2304    0.0000 C   0  0
   -1.3533    0.4854    0.0000 C   0  0
   -2.1608    0.3161    0.0000 N   0  0
   -1.0156    1.2381    0.0000 C   0  0
   -0.1949    1.3220    0.0000 C   0  0
    0.1428    2.0747    0.0000 C   0  0
    0.9635    2.1586    0.0000 O   0  0
    1.3013    2.9113    0.0000 C   0  0
    2.1220    2.9952    0.0000 C   0  0
    2.6020    2.3237    0.0000 C   0  0
    3.4220    2.4072    0.0000 C   0  0
    3.7605    3.1605    0.0000 C   0  0
    3.2729    3.8312    0.0000 C   0  0
    2.4546    3.7444    0.0000 C   0  0
   -0.1227   -0.3190    0.0000 C   0  0
    0.2107   -1.0737    0.0000 O   0  0
    1.0309   -1.1623    0.0000 C   0  0
    1.3590   -1.9161    0.0000 C   0  0
    2.1784   -2.0050    0.0000 C   0  0
    2.6661   -1.3385    0.0000 C   0  0
    2.3286   -0.5811    0.0000 C   0  0
    1.5102   -0.4958    0.0000 C   0  0
    3.4865   -1.4261    0.0000 C   0  0
    3.8971   -2.1376    0.0000 N   0  0
    4.7045   -1.9674    0.0000 O   0  0
    4.7921   -1.1470    0.0000 C   0  0
    4.0389   -0.8103    0.0000 N   0  0
    5.5072   -0.7356    0.0000 O   0  0
    2.8131    0.0866    0.0000 Cl  0  0
  3  2  1  0
  3  7  2  0
  2  4  2  0
  4  5  1  0
  5  6  2  0
  6  7  1  0
  6  8  1  0
  1  2  1  0
  8  9  1  0
  8 10  1  0
  8 11  1  0
  1 12  1  0
 12 13  1  0
 13 14  2  0
 14 15  1  0
 15  1  2  0
 14 16  1  0
 16 17  1  0
 17 18  1  0
 18 19  1  0
 19 20  1  0
 20 21  1  0
 21 22  2  0
 22 23  1  0
 23 24  2  0
 24 25  1  0
 25 26  2  0
 26 21  1  0
 13 27  1  0
 27 28  1  0
 28 29  1  0
 29 30  2  0
 30 31  1  0
 31 32  2  0
 32 33  1  0
 33 34  2  0
 34 29  1  0
 32 35  1  0
 35 36  2  0
 36 37  1  0
 37 38  1  0
 38 39  1  0
 39 35  1  0
 38 40  2  0
 33 41  1  0
M  END
>  <ID_NEW>
CPDPP3004

>  <pEC50>
9.747001083271563

$$$$

  SciTegic12180813102D

 36 39  0  0  0  0            999 V2000
   -3.8496    2.6319    0.0000 C   0  0
   -4.2422    2.5730    0.0000 C   0  0
   -3.6278    2.9795    0.0000 S   0  0
   -3.5791    2.3216    0.0000 N   0  0
   -4.3951    2.2060    0.0000 C   0  0
   -4.4847    2.8970    0.0000 C   0  0
   -3.2441    2.8827    0.0000 C   0  0
   -3.2068    2.4683    0.0000 C   0  0
   -4.7933    2.1480    0.0000 C   0  0
   -4.8952    2.8436    0.0000 C   0  0
   -2.9246    3.1528    0.0000 C   0  0
   -2.8551    2.2367    0.0000 C   0  0
   -5.0393    2.4745    0.0000 C   0  0
   -2.5532    3.0096    0.0000 O   0  0
   -5.4339    2.4189    0.0000 C   0  0
   -5.8333    2.3906    0.0000 F   0  0
   -5.4002    2.0223    0.0000 F   0  0
   -5.4670    2.8254    0.0000 F   0  0
   -2.1458    3.0125    0.0000 C   0  0
   -1.9395    2.6690    0.0000 C   0  0
   -1.5493    2.6674    0.0000 C   0  0
   -1.3475    3.0100    0.0000 C   0  0
   -1.5485    3.3677    0.0000 C   0  0
   -1.9419    3.3667    0.0000 C   0  0
   -1.3477    2.3243    0.0000 O   0  0
   -0.9395    3.0095    0.0000 C   0  0
   -0.7448    2.6701    0.0000 N   0  0
   -0.7441    3.3690    0.0000 N   0  0
   -0.2736    3.2634    0.0000 O   0  0
   -0.2711    2.7887    0.0000 C   0  0
   -0.0098    2.5492    0.0000 O   0  0
   -1.2329    1.8742    0.0000 C   0  0
   -1.4508    1.4993    0.0000 F   0  0
   -0.7834    1.7375    0.0000 F   0  0
   -2.9941    3.5653    0.0000 C   0  0
   -2.6717    3.8318    0.0000 C   0  0
 26 27  1  0
 26 28  2  0
 28 29  1  0
 27 30  1  0
 30 31  2  0
 29 30  1  0
 32 33  1  0
  1  2  1  0
 32 34  1  0
 25 32  1  0
  1  3  1  0
 11 35  1  0
  1  4  2  0
 35 36  1  0
  2  5  1  0
  2  6  2  0
  3  7  1  0
  4  8  1  0
  5  9  2  0
  6 10  1  0
  7 11  1  0
  8 12  1  0
  9 13  1  0
 11 14  1  0
 13 15  1  0
 15 16  1  0
 15 17  1  0
 15 18  1  0
  7  8  2  0
 10 13  2  0
 14 19  1  0
 19 20  2  0
 20 21  1  0
 21 22  2  0
 22 23  1  0
 23 24  2  0
 24 19  1  0
 21 25  1  0
 22 26  1  0
M  END
>  <ID_NEW>
CPDPP3005

>  <pEC50>
9.703830403640946

$$$$

  -MTS-   10172316532D 0   0.00000     0.00000     0

 37 40  0  0  1  0  0  0  0  0999 V2000
   -4.3060    1.6040    0.0000 C   0  0  0  0  0  0  0  0  0  0  0  0
   -4.3070    0.7770    0.0000 C   0  0  0  0  0  0  0  0  0  0  0  0
   -3.5920    0.3640    0.0000 C   0  0  0  0  0  0  0  0  0  0  0  0
   -2.8750    0.7770    0.0000 C   0  0  0  0  0  0  0  0  0  0  0  0
   -2.8780    1.6080    0.0000 C   0  0  0  0  0  0  0  0  0  0  0  0
   -3.5940    2.0170    0.0000 C   0  0  0  0  0  0  0  0  0  0  0  0
   -2.1640    2.0230    0.0000 C   0  0  0  0  0  0  0  0  0  0  0  0
   -1.4480    1.6130    0.0000 N   0  0  0  0  0  0  0  0  0  0  0  0
   -2.1670    2.8480    0.0000 O   0  0  0  0  0  0  0  0  0  0  0  0
   -0.7350    2.0290    0.0000 C   0  0  2  0  0  0  0  0  0  0  0  0
    0.0160    1.6930    0.0000 C   0  0  0  0  0  0  0  0  0  0  0  0
   -0.6560    2.8470    0.0000 C   0  0  0  0  0  0  0  0  0  0  0  0
    0.1500    3.0210    0.0000 C   0  0  0  0  0  0  0  0  0  0  0  0
    0.5630    2.3090    0.0000 C   0  0  0  0  0  0  0  0  0  0  0  0
    1.3850    2.3120    0.0000 C   0  0  0  0  0  0  0  0  0  0  0  0
    1.7940    3.0260    0.0000 C   0  0  0  0  0  0  0  0  0  0  0  0
    1.3760    3.7390    0.0000 C   0  0  0  0  0  0  0  0  0  0  0  0
    0.5560    3.7330    0.0000 C   0  0  0  0  0  0  0  0  0  0  0  0
    2.6190    3.0300    0.0000 S   0  0  0  0  0  0  0  0  0  0  0  0
    3.0350    2.3180    0.0000 N   0  0  0  0  0  0  0  0  0  0  0  0
    3.8600    2.3220    0.0000 C   0  0  0  0  0  0  0  0  0  0  0  0
    4.3460    1.6580    0.0000 S   0  0  0  0  0  0  0  0  0  0  0  0
    5.1290    1.9170    0.0000 C   0  0  0  0  0  0  0  0  0  0  0  0
    5.1250    2.7420    0.0000 N   0  0  0  0  0  0  0  0  0  0  0  0
    4.3390    2.9930    0.0000 N   0  0  0  0  0  0  0  0  0  0  0  0
    5.7990    1.4360    0.0000 C   0  0  0  0  0  0  0  0  0  0  0  0
    5.7170    0.6150    0.0000 C   0  0  0  0  0  0  0  0  0  0  0  0
    6.5510    1.7750    0.0000 C   0  0  0  0  0  0  0  0  0  0  0  0
    3.2780    3.6680    0.0000 O   0  0  0  0  0  0  0  0  0  0  0  0
    2.2770    3.7990    0.0000 O   0  0  0  0  0  0  0  0  0  0  0  0
   -2.1600    0.3660    0.0000 O   0  0  0  0  0  0  0  0  0  0  0  0
   -1.4470    0.7800    0.0000 C   0  0  0  0  0  0  0  0  0  0  0  0
   -0.7310    0.3680    0.0000 C   0  0  0  0  0  0  0  0  0  0  0  0
   -5.0220    0.3650    0.0000 C   0  0  0  0  0  0  0  0  0  0  0  0
   -5.6740   -0.0100    0.0000 F   0  0  0  0  0  0  0  0  0  0  0  0
   -5.8290    0.6720    0.0000 F   0  0  0  0  0  0  0  0  0  0  0  0
   -5.1620   -0.4860    0.0000 F   0  0  0  0  0  0  0  0  0  0  0  0
  2 34  1  0  0  0  0
 14 15  1  0  0  0  0
  6  1  1  0  0  0  0
 15 16  2  0  0  0  0
 34 35  1  0  0  0  0
 34 36  1  0  0  0  0
 34 37  1  0  0  0  0
  1  2  2  0  0  0  0
 16 17  1  0  0  0  0
 17 18  2  0  0  0  0
 18 13  1  0  0  0  0
  2  3  1  0  0  0  0
 16 19  1  0  0  0  0
  7  8  1  0  0  0  0
 19 20  1  0  0  0  0
  7  9  2  0  0  0  0
 20 21  1  0  0  0  0
 21 22  1  0  0  0  0
  5  7  1  0  0  0  0
 10  8  1  1  0  0  0
 10 11  1  0  0  0  0
 22 23  1  0  0  0  0
 23 24  2  0  0  0  0
 24 25  1  0  0  0  0
 25 21  2  0  0  0  0
  3  4  2  0  0  0  0
 23 26  1  0  0  0  0
 26 27  1  0  0  0  0
 11 14  1  0  0  0  0
 26 28  1  0  0  0  0
 13 12  1  0  0  0  0
 19 29  2  0  0  0  0
 12 10  1  0  0  0  0
 19 30  2  0  0  0  0
  4  5  1  0  0  0  0
  4 31  1  0  0  0  0
 31 32  1  0  0  0  0
 13 14  2  0  0  0  0
 32 33  1  0  0  0  0
  5  6  2  0  0  0  0
M  END
>  <ID_NEW>
CPDPP3006

>  <pEC50>
9.577303859988401

$$$$

  SciTegic12180814042D

 42 46  0  0  0  0            999 V2000
   -0.7181   -0.1583    0.0000 C   0  0
   -0.7193   -0.9857    0.0000 C   0  0
   -0.0044   -1.3985    0.0000 C   0  0
    0.7120   -0.9852    0.0000 C   0  0
    0.7091   -0.1547    0.0000 C   0  0
   -0.0062    0.2545    0.0000 C   0  0
    1.4271   -1.3966    0.0000 C   0  0
   -1.4327    0.2540    0.0000 C   0  0
    1.4235   -2.2219    0.0000 C   0  0
    2.1378   -2.6332    0.0000 C   0  0
    2.1338   -0.9827    0.0000 C   0  0
    2.8487   -1.3903    0.0000 C   0  0
    2.8557   -2.2166    0.0000 C   0  0
    3.6438   -2.4653    0.0000 N   0  0
    4.1238   -1.7926    0.0000 C   0  0
    3.6324   -1.1283    0.0000 C   0  0
    3.8806   -0.3415    0.0000 C   0  0
    2.8456   -0.8801    0.0000 C   0  0
    3.9054   -3.2477    0.0000 S   0  0
    3.3586   -3.8655    0.0000 O   0  0
    4.7138   -3.4124    0.0000 C   0  0
    3.0819   -3.2979    0.0000 O   0  0
    4.9706   -4.1933    0.0000 C   0  0
    5.7782   -4.3581    0.0000 C   0  0
    6.3259   -3.7400    0.0000 C   0  0
    6.0604   -2.9544    0.0000 C   0  0
    5.2535   -2.7932    0.0000 C   0  0
    6.6050   -2.3347    0.0000 O   0  0
    7.1345   -3.9036    0.0000 C   0  0
   -2.0843    0.6347    0.0000 F   0  0
   -1.5665    1.1048    0.0000 F   0  0
   -2.2362   -0.0511    0.0000 F   0  0
    7.4805   -4.6511    0.0000 N   0  0
    8.3001   -4.5568    0.0000 C   0  0
    8.4637   -3.7481    0.0000 O   0  0
    7.7452   -3.3428    0.0000 N   0  0
    8.8581   -5.1644    0.0000 O   0  0
    6.3406   -1.5532    0.0000 C   0  0
    6.8852   -0.9335    0.0000 C   0  0
    7.3857   -0.3687    0.0000 F   0  0
    7.7450   -0.9687    0.0000 F   0  0
    6.7431   -0.0851    0.0000 F   0  0
 19 21  1  0
 10 13  2  0
 19 22  2  0
  2  3  1  0
 21 23  2  0
 12 11  2  0
 23 24  1  0
 11  7  1  0
 24 25  2  0
 12 13  1  0
 25 26  1  0
  5  6  2  0
 26 27  2  0
 27 21  1  0
  6  1  1  0
 26 28  1  0
  1  2  2  0
 25 29  1  0
  4  7  1  0
  3  4  2  0
 13 14  1  0
  8 30  1  0
  8 31  1  0
  8 32  1  0
 14 15  1  0
 15 16  1  0
 16 12  1  0
 29 33  1  0
  1  8  1  0
 16 17  1  0
 16 18  1  0
 33 34  1  0
 34 35  1  0
 35 36  1  0
 36 29  2  0
  7  9  2  0
 34 37  2  0
 28 38  1  0
 14 19  1  0
 38 39  1  0
  4  5  1  0
 19 20  2  0
  9 10  1  0
 39 40  1  0
 39 41  1  0
 39 42  1  0
M  END
>  <ID_NEW>
CPDPP3007

>  <pEC50>
9.568699028066117

$$$$

  -MTS-   10172316532D 0   0.00000     0.00000     0

 35 38  0  0  1  0  0  0  0  0999 V2000
    9.0800   -4.1050    0.0000 C   0  0  0  0  0  0  0  0  0  0  0  0
    9.5650   -4.7750    0.0000 N   0  0  0  0  0  0  0  0  0  0  0  0
   10.3510   -4.5220    0.0000 O   0  0  0  0  0  0  0  0  0  0  0  0
   10.3510   -3.6970    0.0000 C   0  0  0  0  0  0  0  0  0  0  0  0
    9.5670   -3.4410    0.0000 N   0  0  0  0  0  0  0  0  0  0  0  0
   11.0200   -3.2130    0.0000 O   0  0  0  0  0  0  0  0  0  0  0  0
    8.2530   -4.1050    0.0000 C   0  0  0  0  0  0  0  0  0  0  0  0
    6.6070   -4.1860    0.0000 C   0  0  0  0  0  0  0  0  0  0  0  0
    7.0480   -4.8800    0.0000 C   0  0  0  0  0  0  0  0  0  0  0  0
    7.8720   -4.8800    0.0000 C   0  0  0  0  0  0  0  0  0  0  0  0
    7.8010   -3.4120    0.0000 C   0  0  0  0  0  0  0  0  0  0  0  0
    6.9800   -3.4120    0.0000 C   0  0  0  0  0  0  0  0  0  0  0  0
    8.1780   -2.6780    0.0000 Cl  0  0  0  0  0  0  0  0  0  0  0  0
    5.7830   -4.1860    0.0000 O   0  0  0  0  0  0  0  0  0  0  0  0
    3.1670   -5.0960    0.0000 C   0  0  0  0  0  0  0  0  0  0  0  0
    3.9300   -5.4260    0.0000 S   0  0  0  0  0  0  0  0  0  0  0  0
    4.4800   -4.8110    0.0000 C   0  0  0  0  0  0  0  0  0  0  0  0
    4.0640   -4.0990    0.0000 C   0  0  0  0  0  0  0  0  0  0  0  0
    3.2500   -4.2730    0.0000 N   0  0  0  0  0  0  0  0  0  0  0  0
    4.3970   -3.3440    0.0000 C   0  0  0  0  0  0  0  0  0  0  0  0
    5.3000   -4.8950    0.0000 C   0  0  1  0  0  0  0  0  0  0  0  0
    2.4550   -5.5150    0.0000 C   0  0  0  0  0  0  0  0  0  0  0  0
    1.7400   -5.1040    0.0000 C   0  0  0  0  0  0  0  0  0  0  0  0
    1.0340   -5.5220    0.0000 C   0  0  0  0  0  0  0  0  0  0  0  0
    1.0340   -6.3490    0.0000 C   0  0  0  0  0  0  0  0  0  0  0  0
    1.7570   -6.7560    0.0000 C   0  0  0  0  0  0  0  0  0  0  0  0
    2.4550   -6.3360    0.0000 C   0  0  0  0  0  0  0  0  0  0  0  0
    0.3230   -6.7680    0.0000 C   0  0  0  0  0  0  0  0  0  0  0  0
   -0.3950   -6.3610    0.0000 F   0  0  0  0  0  0  0  0  0  0  0  0
    0.3230   -7.5930    0.0000 F   0  0  0  0  0  0  0  0  0  0  0  0
    0.1020   -5.9730    0.0000 F   0  0  0  0  0  0  0  0  0  0  0  0
    5.6390   -5.6470    0.0000 C   0  0  0  0  0  0  0  0  0  0  0  0
    5.5570   -6.4670    0.0000 C   0  0  0  0  0  0  0  0  0  0  0  0
    4.8050   -6.8060    0.0000 C   0  0  0  0  0  0  0  0  0  0  0  0
    6.2270   -6.9480    0.0000 C   0  0  0  0  0  0  0  0  0  0  0  0
  7  1  1  0  0  0  0
  1  2  2  0  0  0  0
  2  3  1  0  0  0  0
  3  4  1  0  0  0  0
  4  5  1  0  0  0  0
  5  1  1  0  0  0  0
  4  6  2  0  0  0  0
 18 20  1  0  0  0  0
 17 21  1  0  0  0  0
 21 14  1  0  0  0  0
 15 16  1  0  0  0  0
 16 17  1  0  0  0  0
 17 18  2  0  0  0  0
 18 19  1  0  0  0  0
 19 15  2  0  0  0  0
 15 22  1  0  0  0  0
  8  9  2  0  0  0  0
  9 10  1  0  0  0  0
 10  7  2  0  0  0  0
  7 11  1  0  0  0  0
 11 12  2  0  0  0  0
 12  8  1  0  0  0  0
 11 13  1  0  0  0  0
  8 14  1  0  0  0  0
 22 23  2  0  0  0  0
 23 24  1  0  0  0  0
 24 25  2  0  0  0  0
 25 26  1  0  0  0  0
 26 27  2  0  0  0  0
 27 22  1  0  0  0  0
 25 28  1  0  0  0  0
 28 29  1  0  0  0  0
 28 30  1  0  0  0  0
 28 31  1  0  0  0  0
 21 32  1  6  0  0  0
 33 32  1  0  0  0  0
 33 34  1  0  0  0  0
 33 35  1  0  0  0  0
M  END
>  <ID_NEW>
CPDPP3008

>  <pEC50>
9.521151511159141

$$$$

  SciTegic12180812322D

 33 36  0  0  0  0            999 V2000
   -4.3972    0.7542    0.0000 C   0  0
   -4.3984   -0.0732    0.0000 C   0  0
   -3.6836   -0.4860    0.0000 C   0  0
   -2.9671   -0.0727    0.0000 C   0  0
   -2.9700    0.7578    0.0000 C   0  0
   -3.6854    1.1670    0.0000 C   0  0
   -2.2571    1.1730    0.0000 C   0  0
   -5.1132   -0.4851    0.0000 C   0  0
   -5.8273   -0.0720    0.0000 F   0  0
   -5.1138   -1.3101    0.0000 F   0  0
   -5.8333   -0.8916    0.0000 F   0  0
   -1.5025    0.8429    0.0000 O   0  0
   -0.9528    1.4581    0.0000 C   0  0
   -1.3681    2.1710    0.0000 C   0  0
   -2.1743    1.9963    0.0000 N   0  0
   -1.0354    2.9260    0.0000 C   0  0
   -0.1320    1.3749    0.0000 C   0  0
    0.2064    0.6226    0.0000 O   0  0
   -0.2167    3.0186    0.0000 O   0  0
   -0.0826    3.8326    0.0000 C   0  0
    1.0272    0.5395    0.0000 C   0  0
    1.3607   -0.2139    0.0000 C   0  0
    2.1807   -0.2973    0.0000 C   0  0
    2.6639    0.3724    0.0000 C   0  0
    2.3213    1.1276    0.0000 C   0  0
    1.5023    1.2074    0.0000 C   0  0
    3.4848    0.2904    0.0000 C   0  0
    2.8013    1.7986    0.0000 Cl  0  0
    3.9013   -0.4198    0.0000 N   0  0
    4.7074   -0.2441    0.0000 O   0  0
    4.7894    0.5769    0.0000 C   0  0
    4.0340    0.9084    0.0000 N   0  0
    5.5017    0.9931    0.0000 O   0  0
  5  6  2  0
  8 11  1  0
  7 12  1  0
  6  1  1  0
  1  2  2  0
  3  4  2  0
  4  5  1  0
 12 13  1  0
 13 14  2  0
 14 15  1  0
 15  7  2  0
 14 16  1  0
  2  8  1  0
 13 17  1  0
  2  3  1  0
 17 18  1  0
  8  9  1  0
  5  7  1  0
  8 10  1  0
 16 19  1  0
 19 20  1  0
 18 21  1  0
 21 22  2  0
 22 23  1  0
 23 24  2  0
 24 25  1  0
 25 26  2  0
 26 21  1  0
 24 27  1  0
 25 28  1  0
 27 29  2  0
 29 30  1  0
 30 31  1  0
 31 32  1  0
 32 27  1  0
 31 33  2  0
M  END
>  <ID_NEW>
CPDPP3009

>  <pEC50>
9.506551686629887

$$$$

  SciTegic12180813062D

 39 43  0  0  0  0            999 V2000
    2.9617   -0.2845    0.0000 C   0  0
    3.0042   -1.1634    0.0000 N   0  0
    3.8561   -1.3971    0.0000 O   0  0
    4.3417   -0.6590    0.0000 C   0  0
    3.7897    0.0307    0.0000 N   0  0
    5.2242   -0.6180    0.0000 O   0  0
    2.3176    0.9883    0.0000 C   0  0
    1.6270    1.4440    0.0000 C   0  0
    0.8891    1.0737    0.0000 C   0  0
    0.8408    0.2480    0.0000 C   0  0
    2.2711    0.1668    0.0000 C   0  0
    0.2000    1.5273    0.0000 O   0  0
   -4.4014    1.6625    0.0000 C   0  0
   -4.4026    0.8352    0.0000 C   0  0
   -3.6878    0.4223    0.0000 C   0  0
   -2.9713    0.8356    0.0000 C   0  0
   -2.9742    1.6662    0.0000 C   0  0
   -3.6896    2.0753    0.0000 C   0  0
   -5.1208    0.4292    0.0000 C   0  0
   -5.8315    0.8482    0.0000 F   0  0
   -5.1283   -0.3958    0.0000 F   0  0
   -5.3271    1.2280    0.0000 F   0  0
   -2.2613    2.0814    0.0000 C   0  0
   -1.5086    1.7470    0.0000 S   0  0
   -0.9589    2.3622    0.0000 C   0  0
   -1.3741    3.0751    0.0000 C   0  0
   -2.1804    2.9004    0.0000 N   0  0
   -1.0414    3.8301    0.0000 C   0  0
   -0.1381    2.2790    0.0000 C   0  0
    0.3443    2.9483    0.0000 C   0  0
    1.1651    2.8651    0.0000 C   0  0
    1.5362   -0.2060    0.0000 C   0  0
    1.4913   -1.0298    0.0000 C   0  0
    0.7427   -1.3721    0.0000 C   0  0
    0.6671   -2.1928    0.0000 C   0  0
    1.3414   -2.6698    0.0000 C   0  0
    2.0934   -2.3200    0.0000 C   0  0
    2.1654   -1.5002    0.0000 C   0  0
    1.2672   -3.4915    0.0000 F   0  0
  1  2  2  0
  2  3  1  0
  3  4  1  0
  4  5  1  0
  5  1  1  0
  4  6  2  0
  7  8  2  0
  8  9  1  0
  9 10  2  0
 10 32  1  0
 32 11  2  0
 11  7  1  0
 11  1  1  0
  9 12  1  0
 13 14  2  0
 14 15  1  0
 15 16  2  0
 16 17  1  0
 17 18  2  0
 18 13  1  0
 14 19  1  0
 19 20  1  0
 19 21  1  0
 19 22  1  0
 17 23  1  0
 23 24  1  0
 24 25  1  0
 25 26  2  0
 26 27  1  0
 27 23  2  0
 26 28  1  0
 25 29  1  0
 29 12  1  0
 29 30  1  0
 30 31  1  0
 32 33  1  0
 33 34  2  0
 34 35  1  0
 35 36  2  0
 36 37  1  0
 37 38  2  0
 38 33  1  0
 36 39  1  0
M  END
>  <ID_NEW>
CPDPP3010

>  <pEC50>
9.471825901251107

$$$$

  SciTegic12180813062D

 33 36  0  0  0  0            999 V2000
   -0.9447  -10.2406    0.0000 C   0  0
   -0.9377  -11.0656    0.0000 C   0  0
   -0.2206  -11.4725    0.0000 C   0  0
    0.4936  -11.0545    0.0000 C   0  0
    0.4866  -10.2296    0.0000 C   0  0
   -0.2305   -9.8226    0.0000 C   0  0
    1.1967   -9.8157    0.0000 C   0  0
    1.9506  -10.1447    0.0000 N   0  0
    2.5001   -9.5266    0.0000 C   0  0
    2.0821   -8.8166    0.0000 C   0  0
    1.2756   -8.9935    0.0000 S   0  0
    3.3223   -9.6056    0.0000 C   0  0
    2.4110   -8.0583    0.0000 C   0  0
   -1.6478  -11.4837    0.0000 C   0  0
   -1.4278  -12.2796    0.0000 F   0  0
   -2.4242  -11.7739    0.0000 F   0  0
   -2.0002  -10.7415    0.0000 F   0  0
    1.9245   -7.3932    0.0000 O   0  0
    3.2308   -7.9654    0.0000 C   0  0
    3.5639   -7.2114    0.0000 C   0  0
    1.7628   -5.9739    0.0000 C   0  0
    2.2535   -6.6391    0.0000 C   0  0
    3.0732   -6.5461    0.0000 C   0  0
    3.4022   -5.7880    0.0000 C   0  0
    2.9115   -5.1269    0.0000 C   0  0
    2.0917   -5.2199    0.0000 C   0  0
    3.2446   -4.3687    0.0000 C   0  0
    4.2220   -5.6992    0.0000 Br  0  0
    4.0501   -4.1910    0.0000 N   0  0
    4.1327   -3.3670    0.0000 O   0  0
    3.3744   -3.0338    0.0000 C   0  0
    2.8234   -3.6521    0.0000 N   0  0
    3.1988   -2.2277    0.0000 O   0  0
  1  2  2  0
  9 12  1  0
  2 14  1  0
 14 15  1  0
 14 16  1  0
 14 17  1  0
 13 18  1  0
 13 19  1  0
 20 19  1  0
  3  4  2  0
  5  7  1  0
  8  9  1  0
  4  5  1  0
  2  3  1  0
  5  6  2  0
  7  8  2  0
  9 10  2  0
 22 23  1  0
 25 26  2  0
 26 21  1  0
 21 22  2  0
 23 24  2  0
 25 27  1  0
 24 25  1  0
 24 28  1  0
 18 22  1  0
 27 29  2  0
 10 11  1  0
 11  7  1  0
  6  1  1  0
 29 30  1  0
 31 32  1  0
 32 27  1  0
 31 30  1  0
 10 13  1  0
 31 33  2  0
M  END
>  <ID_NEW>
CPDPP3011

>  <pEC50>
9.457942744245955

$$$$

  -MTS-   10172316532D 0   0.00000     0.00000     0

 32 35  0  0  1  0  0  0  0  0999 V2000
    9.0800   -4.1050    0.0000 C   0  0  0  0  0  0  0  0  0  0  0  0
    9.5650   -4.7750    0.0000 N   0  0  0  0  0  0  0  0  0  0  0  0
   10.3510   -4.5220    0.0000 O   0  0  0  0  0  0  0  0  0  0  0  0
   10.3510   -3.6970    0.0000 C   0  0  0  0  0  0  0  0  0  0  0  0
    9.5670   -3.4410    0.0000 N   0  0  0  0  0  0  0  0  0  0  0  0
   11.0200   -3.2130    0.0000 O   0  0  0  0  0  0  0  0  0  0  0  0
    8.2530   -4.1050    0.0000 C   0  0  0  0  0  0  0  0  0  0  0  0
    6.6070   -4.1860    0.0000 C   0  0  0  0  0  0  0  0  0  0  0  0
    7.0480   -4.8800    0.0000 C   0  0  0  0  0  0  0  0  0  0  0  0
    7.8720   -4.8800    0.0000 C   0  0  0  0  0  0  0  0  0  0  0  0
    7.8010   -3.4120    0.0000 C   0  0  0  0  0  0  0  0  0  0  0  0
    6.9800   -3.4120    0.0000 C   0  0  0  0  0  0  0  0  0  0  0  0
    8.1780   -2.6780    0.0000 Cl  0  0  0  0  0  0  0  0  0  0  0  0
    5.7830   -4.1860    0.0000 O   0  0  0  0  0  0  0  0  0  0  0  0
    3.1670   -5.0960    0.0000 C   0  0  0  0  0  0  0  0  0  0  0  0
    3.9300   -5.4260    0.0000 S   0  0  0  0  0  0  0  0  0  0  0  0
    4.4800   -4.8110    0.0000 C   0  0  0  0  0  0  0  0  0  0  0  0
    4.0640   -4.0990    0.0000 C   0  0  0  0  0  0  0  0  0  0  0  0
    3.2500   -4.2730    0.0000 N   0  0  0  0  0  0  0  0  0  0  0  0
    4.3970   -3.3440    0.0000 C   0  0  0  0  0  0  0  0  0  0  0  0
    5.3000   -4.8950    0.0000 C   0  0  1  0  0  0  0  0  0  0  0  0
    2.4550   -5.5150    0.0000 C   0  0  0  0  0  0  0  0  0  0  0  0
    1.7400   -5.1040    0.0000 C   0  0  0  0  0  0  0  0  0  0  0  0
    1.0340   -5.5220    0.0000 C   0  0  0  0  0  0  0  0  0  0  0  0
    1.0340   -6.3490    0.0000 C   0  0  0  0  0  0  0  0  0  0  0  0
    1.7570   -6.7560    0.0000 C   0  0  0  0  0  0  0  0  0  0  0  0
    2.4550   -6.3360    0.0000 C   0  0  0  0  0  0  0  0  0  0  0  0
    0.3230   -6.7680    0.0000 C   0  0  0  0  0  0  0  0  0  0  0  0
   -0.3950   -6.3610    0.0000 F   0  0  0  0  0  0  0  0  0  0  0  0
    0.3230   -7.5930    0.0000 F   0  0  0  0  0  0  0  0  0  0  0  0
    0.1020   -5.9730    0.0000 F   0  0  0  0  0  0  0  0  0  0  0  0
    5.6390   -5.6470    0.0000 C   0  0  0  0  0  0  0  0  0  0  0  0
  7  1  1  0  0  0  0
  1  2  2  0  0  0  0
  2  3  1  0  0  0  0
  3  4  1  0  0  0  0
  4  5  1  0  0  0  0
  5  1  1  0  0  0  0
  4  6  2  0  0  0  0
 18 20  1  0  0  0  0
 17 21  1  0  0  0  0
 21 14  1  0  0  0  0
 15 16  1  0  0  0  0
 16 17  1  0  0  0  0
 17 18  2  0  0  0  0
 18 19  1  0  0  0  0
 19 15  2  0  0  0  0
 15 22  1  0  0  0  0
  8  9  2  0  0  0  0
  9 10  1  0  0  0  0
 10  7  2  0  0  0  0
  7 11  1  0  0  0  0
 11 12  2  0  0  0  0
 12  8  1  0  0  0  0
 11 13  1  0  0  0  0
  8 14  1  0  0  0  0
 22 23  2  0  0  0  0
 23 24  1  0  0  0  0
 24 25  2  0  0  0  0
 25 26  1  0  0  0  0
 26 27  2  0  0  0  0
 27 22  1  0  0  0  0
 25 28  1  0  0  0  0
 28 29  1  0  0  0  0
 28 30  1  0  0  0  0
 28 31  1  0  0  0  0
 21 32  1  6  0  0  0
M  END
>  <ID_NEW>
CPDPP3012

>  <pEC50>
9.44322251121207

$$$$

  SciTegic12180813092D

 46 50  0  0  0  0            999 V2000
   -1.9889    2.6792    0.0000 C   0  0
   -1.9901    2.2477    0.0000 C   0  0
   -1.6044    2.0223    0.0000 C   0  0
   -1.2297    2.2481    0.0000 C   0  0
   -1.2325    2.6828    0.0000 C   0  0
   -1.6062    2.8920    0.0000 C   0  0
   -0.8634    2.8944    0.0000 C   0  0
   -0.4789    2.6921    0.0000 N   0  0
   -0.8582    2.0237    0.0000 O   0  0
   -0.8568    1.5972    0.0000 C   0  0
   -3.7129    1.6375    0.0000 C   0  0
   -4.1408    1.5818    0.0000 C   0  0
   -3.4862    2.0147    0.0000 S   0  0
   -3.4382    1.3131    0.0000 N   0  0
   -4.3063    1.1908    0.0000 C   0  0
   -4.3971    1.9241    0.0000 C   0  0
   -3.0621    1.9160    0.0000 C   0  0
   -3.0415    1.4671    0.0000 C   0  0
   -4.7274    1.1356    0.0000 C   0  0
   -4.8292    1.8657    0.0000 C   0  0
   -2.7429    2.1878    0.0000 C   0  0
   -2.6755    1.2268    0.0000 C   0  0
   -4.9861    1.4811    0.0000 C   0  0
   -2.3416    2.0529    0.0000 O   0  0
   -5.4067    1.4340    0.0000 C   0  0
   -5.8302    1.3871    0.0000 F   0  0
   -5.3730    1.0072    0.0000 F   0  0
   -5.4440    1.8460    0.0000 F   0  0
   -0.8664    3.3332    0.0000 N   0  0
   -0.4347    3.4073    0.0000 C   0  0
   -0.1583    3.0750    0.0000 O   0  0
   -0.2818    3.8106    0.0000 O   0  0
   -3.1292    0.4500    0.0000 C   0  0
   -3.1292   -0.0625    0.0000 C   0  0
   -2.6880   -0.3167    0.0000 C   0  0
   -2.2468   -0.0625    0.0000 C   0  0
   -2.2468    0.4500    0.0000 C   0  0
   -2.6880    0.7083    0.0000 N   0  0
   -2.6880   -0.8250    0.0000 C   0  0
   -3.1275   -1.0750    0.0000 F   0  0
   -2.2443   -1.0750    0.0000 F   0  0
   -3.1890   -0.6948    0.0000 F   0  0
   -1.2309    1.3785    0.0000 F   0  0
   -0.4769    1.3811    0.0000 F   0  0
   -2.8215    2.6052    0.0000 C   0  0
   -3.2185    2.7415    0.0000 C   0  0
 45 46  1  0
 12 15  1  0
 12 16  2  0
 13 17  1  0
 14 18  1  0
 15 19  2  0
 16 20  1  0
 17 21  1  0
 18 22  1  0
 19 23  1  0
 21 24  1  0
 23 25  1  0
 25 26  1  0
 25 27  1  0
 25 28  1  0
 17 18  2  0
 20 23  2  0
  2 24  1  0
  4  5  1  0
  7 29  1  0
 29 30  1  0
  5  6  2  0
  8 31  1  0
 30 31  1  0
  6  1  1  0
 30 32  2  0
 33 34  1  0
  5  7  1  0
  1  2  2  0
  7  8  2  0
  4  9  1  0
 33 38  1  0
 34 35  1  0
 35 36  1  0
 36 37  1  0
 37 38  1  0
  2  3  1  0
 35 39  1  0
  9 10  1  0
 39 40  1  0
 39 41  1  0
  3  4  2  0
 39 42  1  0
 22 38  1  0
 10 43  1  0
 11 12  1  0
 10 44  1  0
 11 13  1  0
 21 45  1  0
 11 14  2  0
M  END
>  <ID_NEW>
CPDPP3013

>  <pEC50>
9.419992666240498

$$$$

  SciTegic12180813062D

 35 38  0  0  0  0            999 V2000
    2.9617   -0.2845    0.0000 C   0  0
    3.0042   -1.1634    0.0000 N   0  0
    3.8561   -1.3971    0.0000 O   0  0
    4.3417   -0.6590    0.0000 C   0  0
    3.7897    0.0307    0.0000 N   0  0
    5.2242   -0.6180    0.0000 O   0  0
    2.3176    0.9883    0.0000 C   0  0
    1.6270    1.4440    0.0000 C   0  0
    0.8891    1.0737    0.0000 C   0  0
    0.8408    0.2480    0.0000 C   0  0
    1.5362   -0.2060    0.0000 C   0  0
    2.2711    0.1668    0.0000 C   0  0
    1.4913   -1.0299    0.0000 C   0  0
    0.7554   -1.4028    0.0000 O   0  0
    0.2000    1.5273    0.0000 O   0  0
    0.0645   -0.9520    0.0000 C   0  0
   -4.4014    1.6625    0.0000 C   0  0
   -4.4026    0.8352    0.0000 C   0  0
   -3.6878    0.4223    0.0000 C   0  0
   -2.9713    0.8356    0.0000 C   0  0
   -2.9742    1.6662    0.0000 C   0  0
   -3.6896    2.0753    0.0000 C   0  0
   -5.1208    0.4292    0.0000 C   0  0
   -5.8315    0.8482    0.0000 F   0  0
   -5.1283   -0.3958    0.0000 F   0  0
   -5.3271    1.2280    0.0000 F   0  0
   -2.2613    2.0814    0.0000 C   0  0
   -1.5086    1.7470    0.0000 S   0  0
   -0.9589    2.3622    0.0000 C   0  0
   -1.3741    3.0751    0.0000 C   0  0
   -2.1804    2.9004    0.0000 N   0  0
   -1.0414    3.8301    0.0000 C   0  0
   -0.1381    2.2790    0.0000 C   0  0
    0.3443    2.9483    0.0000 C   0  0
    1.1651    2.8651    0.0000 C   0  0
  1  2  2  0
  2  3  1  0
  3  4  1  0
  4  5  1  0
  5  1  1  0
  4  6  2  0
  7  8  2  0
  8  9  1  0
  9 10  2  0
 10 11  1  0
 11 12  2  0
 12  7  1  0
 12  1  1  0
 11 13  1  0
 13 14  1  0
  9 15  1  0
 14 16  1  0
 17 18  2  0
 18 19  1  0
 19 20  2  0
 20 21  1  0
 21 22  2  0
 22 17  1  0
 18 23  1  0
 23 24  1  0
 23 25  1  0
 23 26  1  0
 21 27  1  0
 27 28  1  0
 28 29  1  0
 29 30  2  0
 30 31  1  0
 31 27  2  0
 30 32  1  0
 29 33  1  0
 33 15  1  0
 33 34  1  0
 34 35  1  0
M  END
>  <ID_NEW>
CPDPP3014

>  <pEC50>
9.412567860089455

$$$$

  SciTegic12180813042D

 35 38  0  0  0  0            999 V2000
    2.2265   -4.3593    0.0000 C   0  0
    2.2253   -5.1867    0.0000 C   0  0
    2.9401   -5.5996    0.0000 C   0  0
    3.6566   -5.1862    0.0000 C   0  0
    3.6537   -4.3557    0.0000 C   0  0
    2.9383   -3.9466    0.0000 C   0  0
    4.3666   -3.9405    0.0000 C   0  0
    5.1178   -4.2728    0.0000 N   0  0
    5.6683   -3.6571    0.0000 C   0  0
    5.2514   -2.9438    0.0000 C   0  0
    4.4447   -3.1212    0.0000 S   0  0
    6.4891   -3.7397    0.0000 C   0  0
    5.5821   -2.1844    0.0000 C   0  0
    1.5105   -5.5986    0.0000 C   0  0
    1.5098   -6.4236    0.0000 F   0  0
    0.7964   -5.1855    0.0000 F   0  0
    2.3072   -5.8128    0.0000 F   0  0
    6.4018   -2.0915    0.0000 O   0  0
    5.0918   -1.5209    0.0000 C   0  0
    5.4212   -0.7645    0.0000 F   0  0
    4.2720   -1.6138    0.0000 F   0  0
    4.6737   -0.8011    0.0000 F   0  0
    7.6375   -2.7973    0.0000 C   0  0
    8.4607   -2.7984    0.0000 C   0  0
    8.8715   -2.0872    0.0000 C   0  0
    8.4602   -1.3744    0.0000 C   0  0
    7.6339   -1.3772    0.0000 C   0  0
    7.2268   -2.0890    0.0000 C   0  0
    8.8726   -3.5132    0.0000 Cl  0  0
    9.6965   -2.0874    0.0000 C   0  0
   10.1807   -2.7544    0.0000 N   0  0
   10.9654   -2.4996    0.0000 O   0  0
   10.9656   -1.6746    0.0000 C   0  0
   10.1810   -1.4196    0.0000 N   0  0
   11.6750   -1.2542    0.0000 O   0  0
 14 17  1  0
 13 18  1  0
  3  4  2  0
  5  7  1  0
  8  9  1  0
  4  5  1  0
  2  3  1  0
  5  6  2  0
  7  8  2  0
  9 10  2  0
 13 19  1  0
 10 11  1  0
 19 20  1  0
 11  7  1  0
 19 21  1  0
  6  1  1  0
 19 22  1  0
 24 25  1  0
 27 28  2  0
 28 23  1  0
 23 24  2  0
 28 18  1  0
 25 26  2  0
 24 29  1  0
 26 27  1  0
 10 13  1  0
 25 30  1  0
 30 31  2  0
  1  2  2  0
  9 12  1  0
  2 14  1  0
 14 15  1  0
 31 32  1  0
 32 33  1  0
 33 34  1  0
 34 30  1  0
 14 16  1  0
 33 35  2  0
M  END
>  <ID_NEW>
CPDPP3015

>  <pEC50>
9.395882333485241

$$$$

  SciTegic12180813022D

 36 39  0  0  0  0            999 V2000
    1.2635    0.3284    0.0000 C   0  0
    1.6988   -0.4480    0.0000 C   0  0
    2.5914   -0.4558    0.0000 C   0  0
    2.6007    1.0894    0.0000 C   0  0
    1.7137    1.0936    0.0000 C   0  0
    3.0339    0.3124    0.0000 C   0  0
    3.0490    1.8500    0.0000 Cl  0  0
    3.9173    0.3061    0.0000 C   0  0
    4.4308   -0.4085    0.0000 N   0  0
    5.2729   -0.1415    0.0000 O   0  0
    5.2792    0.7420    0.0000 C   0  0
    4.4409    1.0208    0.0000 N   0  0
    5.9975    1.2562    0.0000 O   0  0
    0.5889    0.2138    0.0000 O   0  0
   -4.1589    0.3989    0.0000 C   0  0
   -4.5828   -0.3116    0.0000 C   0  0
   -4.1795   -1.0319    0.0000 C   0  0
   -3.3524   -1.0428    0.0000 C   0  0
   -2.9304   -0.3275    0.0000 C   0  0
   -3.3361    0.3898    0.0000 C   0  0
   -2.1054   -0.3351    0.0000 C   0  0
   -1.6296   -1.0047    0.0000 N   0  0
   -0.8418   -0.7569    0.0000 C   0  0
   -0.8355    0.0693    0.0000 C   0  0
   -1.6195    0.3292    0.0000 S   0  0
   -0.1785   -1.2474    0.0000 C   0  0
   -0.1631    0.5529    0.0000 C   0  0
   -5.4077   -0.3003    0.0000 C   0  0
   -5.8301   -1.0090    0.0000 F   0  0
   -5.8103    0.4198    0.0000 F   0  0
   -4.8325   -0.8916    0.0000 F   0  0
   -0.2453    1.3738    0.0000 C   0  0
    0.4245    1.8555    0.0000 C   0  0
    0.3423    2.6764    0.0000 C   0  0
   -0.4922    3.8312    0.0000 C   0  0
   -0.4070    3.0128    0.0000 O   0  0
  1  2  2  0
  4  5  2  0
  5  1  1  0
  2  3  1  0
  3  6  2  0
  4  6  1  0
  4  7  1  0
  6  8  1  0
 14  1  1  0
  8  9  2  0
  9 10  1  0
 10 11  1  0
 11 12  1  0
 12  8  1  0
 11 13  2  0
 17 18  2  0
 19 21  1  0
 22 23  1  0
 18 19  1  0
 16 17  1  0
 19 20  2  0
 21 22  2  0
 23 24  2  0
 24 25  1  0
 25 21  1  0
 20 15  1  0
 24 27  1  0
 15 16  2  0
 23 26  1  0
 16 28  1  0
 28 29  1  0
 28 30  1  0
 28 31  1  0
 27 14  1  0
 27 32  1  0
 32 33  1  0
 33 34  1  0
 35 36  1  0
 36 34  1  0
M  END
>  <ID_NEW>
CPDPP3016

>  <pEC50>
9.379000536705064

$$$$

  SciTegic12180813062D

 35 39  0  0  0  0            999 V2000
    2.9617   -0.2845    0.0000 C   0  0
    3.0042   -1.1634    0.0000 N   0  0
    3.8561   -1.3971    0.0000 O   0  0
    4.3417   -0.6590    0.0000 C   0  0
    3.7897    0.0307    0.0000 N   0  0
    5.2242   -0.6180    0.0000 O   0  0
    2.3176    0.9883    0.0000 C   0  0
    1.6270    1.4440    0.0000 C   0  0
    0.8891    1.0737    0.0000 C   0  0
    0.8408    0.2480    0.0000 C   0  0
    1.5362   -0.2060    0.0000 C   0  0
    2.2711    0.1668    0.0000 C   0  0
    0.2000    1.5273    0.0000 O   0  0
   -4.4014    1.6625    0.0000 C   0  0
   -4.4026    0.8352    0.0000 C   0  0
   -3.6878    0.4223    0.0000 C   0  0
   -2.9713    0.8356    0.0000 C   0  0
   -2.9742    1.6662    0.0000 C   0  0
   -3.6896    2.0753    0.0000 C   0  0
   -5.1208    0.4292    0.0000 C   0  0
   -5.8315    0.8482    0.0000 F   0  0
   -5.1283   -0.3958    0.0000 F   0  0
   -5.3271    1.2280    0.0000 F   0  0
   -2.2613    2.0814    0.0000 C   0  0
   -1.5086    1.7470    0.0000 S   0  0
   -0.9589    2.3622    0.0000 C   0  0
   -1.3741    3.0751    0.0000 C   0  0
   -2.1804    2.9004    0.0000 N   0  0
   -1.0414    3.8301    0.0000 C   0  0
   -0.1381    2.2790    0.0000 C   0  0
    0.3443    2.9483    0.0000 C   0  0
    1.1651    2.8651    0.0000 C   0  0
    1.4913   -1.0298    0.0000 C   0  0
    1.0434   -1.7177    0.0000 C   0  0
    1.8672   -1.7626    0.0000 C   0  0
  1  2  2  0
  2  3  1  0
  3  4  1  0
  4  5  1  0
  5  1  1  0
  4  6  2  0
  7  8  2  0
  8  9  1  0
  9 10  2  0
 10 11  1  0
 11 12  2  0
 12  7  1  0
 12  1  1  0
  9 13  1  0
 14 15  2  0
 15 16  1  0
 16 17  2  0
 17 18  1  0
 18 19  2  0
 19 14  1  0
 15 20  1  0
 20 21  1  0
 20 22  1  0
 20 23  1  0
 18 24  1  0
 24 25  1  0
 25 26  1  0
 26 27  2  0
 27 28  1  0
 28 24  2  0
 27 29  1  0
 26 30  1  0
 30 13  1  0
 30 31  1  0
 31 32  1  0
 11 33  1  0
 34 33  1  0
 35 34  1  0
 33 35  1  0
M  END
>  <ID_NEW>
CPDPP3017

>  <pEC50>
9.371434874465407

$$$$

  SciTegic12180814002D

 36 40  0  0  0  0            999 V2000
    0.3013   -4.5009    0.0000 C   0  0
   -0.4033   -5.0279    0.0000 N   0  0
   -0.1191   -5.8636    0.0000 O   0  0
    0.7634   -5.8515    0.0000 C   0  0
    1.0245   -5.0085    0.0000 N   0  0
    1.3242   -6.5258    0.0000 O   0  0
    0.2834   -3.6143    0.0000 C   0  0
    0.2964   -1.8346    0.0000 C   0  0
   -0.4758   -2.2735    0.0000 C   0  0
   -0.4838   -3.1622    0.0000 C   0  0
    1.0611   -3.1680    0.0000 C   0  0
    1.0609   -2.2832    0.0000 C   0  0
    1.8285   -3.6146    0.0000 Cl  0  0
    0.3015   -0.9504    0.0000 S   0  0
    1.1859   -0.9551    0.0000 O   0  0
   -0.5879   -0.9490    0.0000 O   0  0
   -1.9972    1.2583    0.0000 C   0  0
   -1.9984    0.3727    0.0000 C   0  0
   -1.2336   -0.0694    0.0000 C   0  0
   -0.4671    0.3731    0.0000 C   0  0
   -0.4700    1.2620    0.0000 C   0  0
   -1.2354    1.7003    0.0000 N   0  0
    0.2929    1.7064    0.0000 C   0  0
    0.2980   -0.0674    0.0000 N   0  0
    1.0630    1.2674    0.0000 C   0  0
   -2.7643    1.7008    0.0000 C   0  0
   -2.7592    2.5839    0.0000 C   0  0
   -3.5254    3.0264    0.0000 C   0  0
   -4.2932    2.5832    0.0000 C   0  0
   -4.2900    1.6930    0.0000 C   0  0
   -3.5232    1.2546    0.0000 C   0  0
   -5.0618    3.0252    0.0000 C   0  0
   -4.6208    3.8000    0.0000 F   0  0
   -5.5083    2.2583    0.0000 F   0  0
   -5.8333    3.4750    0.0000 F   0  0
    1.0583    0.3750    0.0000 C   0  0
  1  2  2  0
  2  3  1  0
  3  4  1  0
  4  5  1  0
  5  1  1  0
  4  6  2  0
  7  1  1  0
  8  9  2  0
  9 10  1  0
 10  7  2  0
  7 11  1  0
 11 12  2  0
 12  8  1  0
 11 13  1  0
  8 14  1  0
 14 15  2  0
 14 16  2  0
 17 18  2  0
 18 19  1  0
 19 20  2  0
 20 21  1  0
 21 22  2  0
 22 17  1  0
 21 23  1  0
 20 24  1  0
 23 25  1  0
 17 26  1  0
 26 27  2  0
 27 28  1  0
 28 29  2  0
 29 30  1  0
 30 31  2  0
 31 26  1  0
 29 32  1  0
 32 33  1  0
 32 34  1  0
 32 35  1  0
 24 36  1  0
 25 36  1  0
 24 14  1  0
M  END
>  <ID_NEW>
CPDPP3018

>  <pEC50>
9.367027704769523

$$$$

  SciTegic12180814002D

 42 47  0  0  0  0            999 V2000
    0.2834   -4.4946    0.0000 C   0  0
   -0.4436   -4.9903    0.0000 N   0  0
   -0.1964   -5.8376    0.0000 O   0  0
    0.6858   -5.8642    0.0000 C   0  0
    0.9836   -5.0335    0.0000 N   0  0
    1.2165   -6.5625    0.0000 O   0  0
    0.2964   -1.8346    0.0000 C   0  0
   -0.4758   -2.2735    0.0000 C   0  0
   -0.4838   -3.1622    0.0000 C   0  0
    0.2834   -3.6143    0.0000 C   0  0
    1.0611   -3.1680    0.0000 C   0  0
    1.0609   -2.2832    0.0000 C   0  0
    1.8285   -3.6146    0.0000 C   0  0
    0.3015   -0.9504    0.0000 S   0  0
    1.1859   -0.9551    0.0000 O   0  0
   -0.5879   -0.9490    0.0000 O   0  0
   -1.9972    1.2583    0.0000 C   0  0
   -1.9984    0.3727    0.0000 C   0  0
   -1.2336   -0.0694    0.0000 C   0  0
   -0.4671    0.3731    0.0000 C   0  0
   -0.4700    1.2620    0.0000 C   0  0
   -1.2354    1.7003    0.0000 C   0  0
    0.2929    1.7064    0.0000 C   0  0
    0.2980   -0.0674    0.0000 N   0  0
    1.0630    1.2674    0.0000 C   0  0
   -2.7643    1.7008    0.0000 C   0  0
   -2.7592    2.5839    0.0000 C   0  0
   -3.5254    3.0264    0.0000 C   0  0
   -4.2932    2.5832    0.0000 C   0  0
   -4.2900    1.6930    0.0000 C   0  0
   -3.5232    1.2546    0.0000 C   0  0
   -5.0618    3.0252    0.0000 C   0  0
   -4.6208    3.8000    0.0000 F   0  0
   -5.5083    2.2583    0.0000 F   0  0
   -5.8333    3.4750    0.0000 F   0  0
    1.0583    0.3750    0.0000 C   0  0
    1.5042    2.0417    0.0000 C   0  0
    1.9500    1.2708    0.0000 C   0  0
    1.9203   -4.4935    0.0000 C   0  0
    2.7882   -4.6811    0.0000 C   0  0
    3.2348   -3.9137    0.0000 O   0  0
    2.6429   -3.2519    0.0000 C   0  0
 10  1  1  0
  7 14  1  0
 14 15  2  0
 14 16  2  0
 17 18  2  0
 18 19  1  0
 19 20  2  0
 20 21  1  0
 21 22  2  0
 22 17  1  0
 21 23  1  0
 20 24  1  0
 23 25  1  0
 17 26  1  0
 26 27  2  0
 27 28  1  0
 28 29  2  0
 29 30  1  0
 30 31  2  0
 31 26  1  0
 29 32  1  0
 32 33  1  0
 32 34  1  0
 32 35  1  0
 24 36  1  0
 25 36  1  0
 24 14  1  0
 25 37  1  0
 25 38  1  0
 13 39  1  0
 39 40  2  0
 40 41  1  0
 41 42  1  0
 42 13  2  0
  1  2  2  0
  2  3  1  0
  3  4  1  0
  4  5  1  0
  5  1  1  0
  4  6  2  0
  7  8  2  0
  8  9  1  0
  9 10  2  0
 10 11  1  0
 11 12  2  0
 12  7  1  0
 11 13  1  0
M  END
>  <ID_NEW>
CPDPP3019

>  <pEC50>
9.327248273048612

$$$$

  SciTegic12180813062D

 36 39  0  0  0  0            999 V2000
    2.9617   -0.2845    0.0000 C   0  0
    3.0042   -1.1634    0.0000 N   0  0
    3.8561   -1.3971    0.0000 O   0  0
    4.3417   -0.6590    0.0000 C   0  0
    3.7897    0.0307    0.0000 N   0  0
    5.2242   -0.6180    0.0000 O   0  0
    2.3176    0.9883    0.0000 C   0  0
    1.6270    1.4440    0.0000 C   0  0
    0.8891    1.0737    0.0000 C   0  0
    0.8408    0.2480    0.0000 C   0  0
    1.5362   -0.2060    0.0000 C   0  0
    2.2711    0.1668    0.0000 C   0  0
    1.4913   -1.0299    0.0000 C   0  0
    0.7554   -1.4028    0.0000 O   0  0
    0.2000    1.5273    0.0000 O   0  0
    0.0645   -0.9520    0.0000 C   0  0
   -4.4014    1.6625    0.0000 C   0  0
   -4.4026    0.8352    0.0000 C   0  0
   -3.6878    0.4223    0.0000 C   0  0
   -2.9713    0.8356    0.0000 C   0  0
   -2.9742    1.6662    0.0000 C   0  0
   -3.6896    2.0753    0.0000 C   0  0
   -5.1208    0.4292    0.0000 C   0  0
   -5.8315    0.8482    0.0000 F   0  0
   -5.1283   -0.3958    0.0000 F   0  0
   -5.3271    1.2280    0.0000 F   0  0
   -2.2613    2.0814    0.0000 C   0  0
   -1.5086    1.7470    0.0000 S   0  0
   -0.9589    2.3622    0.0000 C   0  0
   -1.3741    3.0751    0.0000 C   0  0
   -2.1804    2.9004    0.0000 N   0  0
   -1.0414    3.8301    0.0000 C   0  0
   -0.1381    2.2790    0.0000 C   0  0
    0.3443    2.9483    0.0000 C   0  0
    1.1651    2.8651    0.0000 C   0  0
   -0.6714   -1.3250    0.0000 C   0  0
  1  2  2  0
  2  3  1  0
  3  4  1  0
  4  5  1  0
  5  1  1  0
  4  6  2  0
  7  8  2  0
  8  9  1  0
  9 10  2  0
 10 11  1  0
 11 12  2  0
 12  7  1  0
 12  1  1  0
 11 13  1  0
 13 14  1  0
  9 15  1  0
 14 16  1  0
 17 18  2  0
 18 19  1  0
 19 20  2  0
 20 21  1  0
 21 22  2  0
 22 17  1  0
 18 23  1  0
 23 24  1  0
 23 25  1  0
 23 26  1  0
 21 27  1  0
 27 28  1  0
 28 29  1  0
 29 30  2  0
 30 31  1  0
 31 27  2  0
 30 32  1  0
 29 33  1  0
 33 15  1  0
 33 34  1  0
 34 35  1  0
 16 36  1  0
M  END
>  <ID_NEW>
CPDPP3020

>  <pEC50>
9.288466208029737

$$$$

  -MTS-   10172316532D 0   0.00000     0.00000     0

 35 38  0  0  1  0  0  0  0  0999 V2000
    6.1100   -5.0680    0.0000 C   0  0  0  0  0  0  0  0  0  0  0  0
    3.8460   -4.2310    0.0000 C   0  0  0  0  0  0  0  0  0  0  0  0
    3.4490   -4.2890    0.0000 C   0  0  0  0  0  0  0  0  0  0  0  0
    4.0680   -3.8830    0.0000 S   0  0  0  0  0  0  0  0  0  0  0  0
    4.1170   -4.5410    0.0000 N   0  0  0  0  0  0  0  0  0  0  0  0
    3.2920   -4.6610    0.0000 C   0  0  0  0  0  0  0  0  0  0  0  0
    3.2030   -3.9610    0.0000 C   0  0  0  0  0  0  0  0  0  0  0  0
    4.4600   -3.9760    0.0000 C   0  0  0  0  0  0  0  0  0  0  0  0
    4.4930   -4.3940    0.0000 C   0  0  0  0  0  0  0  0  0  0  0  0
    2.8900   -4.7190    0.0000 C   0  0  0  0  0  0  0  0  0  0  0  0
    2.7840   -4.0150    0.0000 C   0  0  0  0  0  0  0  0  0  0  0  0
    4.7790   -3.7060    0.0000 C   0  0  2  0  0  0  0  0  0  0  0  0
    4.8530   -4.6260    0.0000 C   0  0  0  0  0  0  0  0  0  0  0  0
    2.6440   -4.3880    0.0000 C   0  0  0  0  0  0  0  0  0  0  0  0
    5.1590   -3.8450    0.0000 O   0  0  0  0  0  0  0  0  0  0  0  0
    2.2410   -4.4440    0.0000 C   0  0  0  0  0  0  0  0  0  0  0  0
    1.8370   -4.4760    0.0000 F   0  0  0  0  0  0  0  0  0  0  0  0
    2.2750   -4.8440    0.0000 F   0  0  0  0  0  0  0  0  0  0  0  0
    2.2080   -4.0370    0.0000 F   0  0  0  0  0  0  0  0  0  0  0  0
    5.5710   -3.8420    0.0000 C   0  0  0  0  0  0  0  0  0  0  0  0
    5.7770   -4.1940    0.0000 C   0  0  0  0  0  0  0  0  0  0  0  0
    6.1710   -4.1950    0.0000 C   0  0  0  0  0  0  0  0  0  0  0  0
    6.3770   -3.8440    0.0000 C   0  0  0  0  0  0  0  0  0  0  0  0
    6.1720   -3.4820    0.0000 C   0  0  0  0  0  0  0  0  0  0  0  0
    5.7750   -3.4830    0.0000 C   0  0  0  0  0  0  0  0  0  0  0  0
    6.3770   -4.5380    0.0000 O   0  0  0  0  0  0  0  0  0  0  0  0
    6.7900   -3.8450    0.0000 C   0  0  0  0  0  0  0  0  0  0  0  0
    6.9880   -4.1920    0.0000 N   0  0  0  0  0  0  0  0  0  0  0  0
    6.9890   -3.4810    0.0000 N   0  0  0  0  0  0  0  0  0  0  0  0
    7.4640   -3.5950    0.0000 O   0  0  0  0  0  0  0  0  0  0  0  0
    7.4660   -4.0700    0.0000 C   0  0  0  0  0  0  0  0  0  0  0  0
    7.7320   -4.3090    0.0000 O   0  0  0  0  0  0  0  0  0  0  0  0
    5.5740   -3.1420    0.0000 F   0  0  0  0  0  0  0  0  0  0  0  0
    4.7100   -3.2910    0.0000 C   0  0  0  0  0  0  0  0  0  0  0  0
    5.0310   -3.0230    0.0000 C   0  0  0  0  0  0  0  0  0  0  0  0
 10 14  1  0  0  0  0
 12 15  1  0  0  0  0
 14 16  1  0  0  0  0
 16 17  1  0  0  0  0
 16 18  1  0  0  0  0
 16 19  1  0  0  0  0
  8  9  2  0  0  0  0
 11 14  2  0  0  0  0
 15 20  1  0  0  0  0
 20 21  2  0  0  0  0
 21 22  1  0  0  0  0
 22 23  2  0  0  0  0
 23 24  1  0  0  0  0
  2  3  1  0  0  0  0
 24 25  2  0  0  0  0
 25 20  1  0  0  0  0
  2  4  1  0  0  0  0
 22 26  1  0  0  0  0
 26  1  1  0  0  0  0
  2  5  2  0  0  0  0
 23 27  1  0  0  0  0
  3  6  1  0  0  0  0
 27 28  1  0  0  0  0
  3  7  2  0  0  0  0
 27 29  2  0  0  0  0
  4  8  1  0  0  0  0
 29 30  1  0  0  0  0
  5  9  1  0  0  0  0
 28 31  1  0  0  0  0
  6 10  2  0  0  0  0
 31 32  2  0  0  0  0
 30 31  1  0  0  0  0
  7 11  1  0  0  0  0
 25 33  1  0  0  0  0
  8 12  1  0  0  0  0
 12 34  1  1  0  0  0
  9 13  1  0  0  0  0
 34 35  1  0  0  0  0
M  END
>  <ID_NEW>
CPDPP3021

>  <pEC50>
9.265382457949551

$$$$

  SciTegic12180813062D

 35 38  0  0  0  0            999 V2000
    4.3063   -0.7759    0.0000 C   0  0
    4.3511   -1.6605    0.0000 C   0  0
    5.1377   -2.0623    0.0000 C   0  0
    5.8802   -1.5808    0.0000 C   0  0
    5.8314   -0.6931    0.0000 C   0  0
    5.0444   -0.2951    0.0000 C   0  0
    6.5703   -0.2100    0.0000 C   0  0
    6.6672   -1.9810    0.0000 F   0  0
    2.9324   -1.8310    0.0000 C   0  0
   -1.0596   -2.0638    0.0000 C   0  0
   -1.4695   -2.7826    0.0000 C   0  0
   -1.0521   -3.4947    0.0000 C   0  0
   -0.2249   -3.4893    0.0000 C   0  0
    0.1829   -2.7659    0.0000 C   0  0
   -0.2369   -2.0567    0.0000 C   0  0
    1.0079   -2.7572    0.0000 C   0  0
    1.4968   -3.4172    0.0000 N   0  0
    2.2796   -3.1540    0.0000 C   0  0
    2.2696   -2.3278    0.0000 C   0  0
    1.4806   -2.0834    0.0000 S   0  0
    2.9524   -3.6313    0.0000 C   0  0
   -2.2945   -2.7875    0.0000 C   0  0
   -2.7027   -3.5044    0.0000 F   0  0
   -2.7112   -2.0755    0.0000 F   0  0
   -1.7077   -3.3674    0.0000 F   0  0
    2.8339   -1.0119    0.0000 C   0  0
    3.4940   -0.5171    0.0000 C   0  0
    3.3955    0.3020    0.0000 C   0  0
    4.0556    0.7969    0.0000 C   0  0
    3.6910   -2.1553    0.0000 C   0  0
    7.3904   -0.5250    0.0000 N   0  0
    7.9438    0.1628    0.0000 O   0  0
    7.4607    0.9017    0.0000 C   0  0
    6.6087    0.6705    0.0000 N   0  0
    7.8958    1.6708    0.0000 O   0  0
  4  5  1  0
  5  6  2  0
  6  1  1  0
 13 14  1  0
 11 12  1  0
 14 15  2  0
 16 17  2  0
 18 19  2  0
 19 20  1  0
 20 16  1  0
 15 10  1  0
 19  9  1  0
 10 11  2  0
 18 21  1  0
 11 22  1  0
 22 23  1  0
 22 24  1  0
 22 25  1  0
  9 26  1  0
 12 13  2  0
 26 27  1  0
 14 16  1  0
 27 28  1  0
 17 18  1  0
 28 29  1  0
  5  7  1  0
  9 30  1  0
 30  2  1  0
  7 31  2  0
  4  8  1  0
  1  2  2  0
  2  3  1  0
 31 32  1  0
 32 33  1  0
 33 34  1  0
 34  7  1  0
  3  4  2  0
 33 35  2  0
M  END
>  <ID_NEW>
CPDPP3022

>  <pEC50>
9.247537880023438

$$$$

  SciTegic12180813062D

 36 39  0  0  0  0            999 V2000
    2.2265   -4.7009    0.0000 C   0  0
    2.2253   -5.5283    0.0000 C   0  0
    2.9401   -5.9412    0.0000 C   0  0
    3.6566   -5.5278    0.0000 C   0  0
    3.6536   -4.6973    0.0000 C   0  0
    2.9383   -4.2882    0.0000 C   0  0
    4.3666   -4.2821    0.0000 C   0  0
    5.1178   -4.6144    0.0000 N   0  0
    5.6683   -3.9987    0.0000 C   0  0
    5.2514   -3.2854    0.0000 C   0  0
    4.4447   -3.4628    0.0000 S   0  0
    6.4891   -4.0813    0.0000 C   0  0
    5.5821   -2.5260    0.0000 C   0  0
    1.5105   -5.9402    0.0000 C   0  0
    1.5098   -6.7652    0.0000 F   0  0
    0.7964   -5.5271    0.0000 F   0  0
    2.3072   -6.1544    0.0000 F   0  0
    6.4018   -2.4331    0.0000 O   0  0
    5.0928   -1.8570    0.0000 C   0  0
    5.4212   -1.1062    0.0000 C   0  0
    4.2720   -1.9555    0.0000 F   0  0
    4.5286   -1.2550    0.0000 F   0  0
    7.6374   -3.1389    0.0000 C   0  0
    8.4607   -3.1401    0.0000 C   0  0
    8.8714   -2.4288    0.0000 C   0  0
    8.4602   -1.7160    0.0000 C   0  0
    7.6338   -1.7188    0.0000 C   0  0
    7.2267   -2.4306    0.0000 C   0  0
    8.8726   -3.8549    0.0000 Cl  0  0
    9.6964   -2.4290    0.0000 C   0  0
    5.0042   -0.3875    0.0000 C   0  0
   10.1843   -3.0934    0.0000 N   0  0
   10.9690   -2.8387    0.0000 O   0  0
   10.9692   -2.0136    0.0000 C   0  0
   10.1846   -1.7586    0.0000 N   0  0
   11.6792   -1.5958    0.0000 O   0  0
  2 14  1  0
 14 15  1  0
 14 16  1  0
 14 17  1  0
 13 18  1  0
 13 19  1  0
 19 20  1  0
 19 21  1  0
 19 22  1  0
  3  4  2  0
  5  7  1  0
  8  9  1  0
  4  5  1  0
  2  3  1  0
  5  6  2  0
  7  8  2  0
  9 10  2  0
 24 25  1  0
 27 28  2  0
 28 23  1  0
 23 24  2  0
 28 18  1  0
 25 26  2  0
 24 29  1  0
 25 30  1  0
 26 27  1  0
 10 11  1  0
 20 31  1  0
 11  7  1  0
 30 32  2  0
  6  1  1  0
 10 13  1  0
  1  2  2  0
 32 33  1  0
 33 34  1  0
 34 35  1  0
 35 30  1  0
  9 12  1  0
 34 36  2  0
M  END
>  <ID_NEW>
CPDPP3023

>  <pEC50>
9.192479901964457

$$$$

  SciTegic12180812592D

 35 38  0  0  0  0            999 V2000
   10.1426   -3.7231    0.0000 C   0  0
   10.6276   -4.3879    0.0000 N   0  0
   11.4127   -4.1342    0.0000 O   0  0
   11.4140   -3.3093    0.0000 C   0  0
   10.6299   -3.0532    0.0000 N   0  0
   12.0822   -2.8254    0.0000 O   0  0
    9.3157   -3.7178    0.0000 C   0  0
    7.6692   -3.7986    0.0000 C   0  0
    8.1109   -4.4930    0.0000 C   0  0
    8.9342   -4.4550    0.0000 C   0  0
    8.8640   -3.0248    0.0000 C   0  0
    8.0422   -3.0663    0.0000 C   0  0
    9.2402   -2.2906    0.0000 Cl  0  0
    6.8451   -3.8379    0.0000 O   0  0
    4.2298   -4.7090    0.0000 C   0  0
    4.9926   -5.0390    0.0000 S   0  0
    5.5422   -4.4239    0.0000 C   0  0
    5.1269   -3.7112    0.0000 C   0  0
    4.3126   -3.8858    0.0000 N   0  0
    5.4596   -2.9563    0.0000 C   0  0
    6.3628   -4.5071    0.0000 C   0  0
    3.5176   -5.1273    0.0000 C   0  0
    2.8022   -4.7170    0.0000 C   0  0
    2.0905   -5.1346    0.0000 C   0  0
    2.0962   -5.9614    0.0000 C   0  0
    2.8196   -6.3689    0.0000 C   0  0
    3.5283   -5.9489    0.0000 C   0  0
    1.3854   -6.3802    0.0000 C   0  0
    0.6673   -5.9740    0.0000 F   0  0
    1.3926   -7.2052    0.0000 F   0  0
    1.1648   -5.5852    0.0000 F   0  0
    6.7012   -5.2595    0.0000 C   0  0
    6.6195   -6.0791    0.0000 C   0  0
    5.8676   -6.4187    0.0000 C   0  0
    7.2895   -6.5604    0.0000 C   0  0
  7  1  1  0
  1  2  2  0
  2  3  1  0
  3  4  1  0
  4  5  1  0
  5  1  1  0
  4  6  2  0
 18 20  1  0
 17 21  1  0
 21 14  1  0
 15 16  1  0
 16 17  1  0
 17 18  2  0
 18 19  1  0
 19 15  2  0
 15 22  1  0
  8  9  2  0
  9 10  1  0
 10  7  2  0
  7 11  1  0
 11 12  2  0
 12  8  1  0
 11 13  1  0
  8 14  1  0
 22 23  2  0
 23 24  1  0
 24 25  2  0
 25 26  1  0
 26 27  2  0
 27 22  1  0
 25 28  1  0
 28 29  1  0
 28 30  1  0
 28 31  1  0
 21 32  1  0
 33 32  1  0
 33 34  1  0
 33 35  1  0
M  END
>  <ID_NEW>
CPDPP3024

>  <pEC50>
9.168069399309456

$$$$

  SciTegic12180812582D

 38 41  0  0  0  0            999 V2000
    0.9510    0.2429    0.0000 C   0  0
    0.1966    0.0915    0.0000 C   0  0
   -0.0476   -0.6374    0.0000 C   0  0
    0.4584   -1.2149    0.0000 C   0  0
    1.2129   -1.0634    0.0000 C   0  0
    1.4612   -0.3345    0.0000 C   0  0
   -0.7979   -0.7846    0.0000 O   0  0
    1.7189   -1.6408    0.0000 Cl  0  0
    2.2114   -0.1872    0.0000 C   0  0
   -4.4061   -1.3581    0.0000 C   0  0
   -4.9256   -1.9225    0.0000 C   0  0
   -4.6959   -2.6548    0.0000 C   0  0
   -3.9465   -2.8271    0.0000 C   0  0
   -3.4269   -2.2586    0.0000 C   0  0
   -3.6567   -1.5262    0.0000 C   0  0
   -5.2198   -3.2192    0.0000 C   0  0
   -3.1369   -0.9661    0.0000 C   0  0
   -2.3725   -1.0544    0.0000 S   0  0
   -2.0501   -0.3545    0.0000 C   0  0
   -2.6148    0.1633    0.0000 C   0  0
   -3.2855   -0.2117    0.0000 N   0  0
   -2.5241    0.9280    0.0000 C   0  0
   -1.3040   -0.2072    0.0000 C   0  0
   -4.8123   -3.8667    0.0000 F   0  0
   -5.8302   -3.6859    0.0000 F   0  0
   -5.7359   -2.6509    0.0000 F   0  0
   -4.4625    1.5412    0.0000 C   0  0
   -3.8480    1.0825    0.0000 C   0  0
   -3.1385    1.3874    0.0000 N   0  0
   -3.0477    2.1477    0.0000 C   0  0
   -3.6705    2.6048    0.0000 C   0  0
    2.7690   -0.7056    0.0000 N   0  0
    3.4369   -0.3337    0.0000 O   0  0
    3.2896    0.4165    0.0000 C   0  0
    2.5307    0.5081    0.0000 N   0  0
    3.8100    0.9766    0.0000 O   0  0
   -3.5860    3.3727    0.0000 O   0  0
   -4.2088    3.8298    0.0000 C   0  0
 18 19  1  0
 19 20  2  0
 20 21  1  0
 21 17  2  0
 15 10  1  0
 20 22  1  0
 10 11  2  0
  6  1  1  0
  3  7  1  0
  5  8  1  0
  6  9  1  0
  1  2  2  0
  2  3  1  0
  3  4  2  0
 27 28  1  0
 28 29  1  0
 29 30  1  0
 30 31  1  0
 22 29  1  0
  4  5  1  0
  5  6  2  0
 19 23  1  0
 12 16  1  0
 23  7  1  0
 12 13  2  0
 15 17  1  0
 16 24  1  0
 17 18  1  0
 16 25  1  0
 16 26  1  0
 13 14  1  0
 11 12  1  0
 14 15  2  0
  9 32  2  0
 32 33  1  0
 33 34  1  0
 34 35  1  0
 35  9  1  0
 34 36  2  0
 31 37  1  0
 37 38  1  0
M  END
>  <ID_NEW>
CPDPP3025

>  <pEC50>
9.164245043014699

$$$$

  SciTegic12180813062D

 37 40  0  0  0  0            999 V2000
    1.1487    2.8351    0.0000 C   0  0
    1.7565    3.2249    0.0000 S   0  0
    2.1436    2.6178    0.0000 O   0  0
    1.3653    3.8314    0.0000 O   0  0
    2.3619    3.6109    0.0000 N   0  0
    0.5350    1.7463    0.0000 C   0  0
    1.1502    2.1134    0.0000 C   0  0
    0.5179    3.1922    0.0000 C   0  0
    3.0006    3.2811    0.0000 C   0  0
    3.1096    2.5747    0.0000 S   0  0
    3.8242    2.4611    0.0000 C   0  0
    4.1541    3.1040    0.0000 N   0  0
    3.6423    3.6090    0.0000 N   0  0
    4.1519    1.8171    0.0000 C   0  0
    3.7557    1.2134    0.0000 C   0  0
    4.8674    1.7769    0.0000 C   0  0
   -0.0916    2.1049    0.0000 C   0  0
   -0.1047    2.8212    0.0000 C   0  0
   -0.7899    3.0301    0.0000 C   0  0
   -1.2004    2.4429    0.0000 C   0  0
   -0.7688    1.8712    0.0000 C   0  0
   -1.9211    2.4298    0.0000 N   0  0
   -2.2929    3.0473    0.0000 C   0  0
   -3.0136    3.0341    0.0000 C   0  0
   -1.9440    3.6781    0.0000 O   0  0
   -3.3831    3.6508    0.0000 C   0  0
   -4.1032    3.6379    0.0000 C   0  0
   -4.4528    3.0067    0.0000 C   0  0
   -4.0771    2.3871    0.0000 C   0  0
   -3.3583    2.4030    0.0000 C   0  0
   -2.9837    1.7872    0.0000 O   0  0
   -3.3297    1.1548    0.0000 C   0  0
   -2.9551    0.5390    0.0000 C   0  0
   -5.1767    2.9910    0.0000 C   0  0
   -5.8325    2.9782    0.0000 F   0  0
   -5.6640    3.5655    0.0000 F   0  0
   -5.6411    2.3979    0.0000 F   0  0
  6  7  1  0
  7  1  2  0
  1  8  1  0
  8 18  2  0
  5  9  1  0
  9 10  1  0
 10 11  1  0
 11 12  2  0
 12 13  1  0
 13  9  2  0
 11 14  1  0
 14 15  1  0
 14 16  1  0
  1  2  1  0
  2  3  2  0
  2  4  2  0
  2  5  1  0
 17  6  2  0
 17 18  1  0
 18 19  1  0
 19 20  1  0
 20 21  1  0
 21 17  1  0
 20 22  1  0
 22 23  1  0
 23 24  1  0
 23 25  2  0
 24 26  2  0
 26 27  1  0
 27 28  2  0
 28 29  1  0
 29 30  2  0
 30 24  1  0
 30 31  1  0
 31 32  1  0
 32 33  1  0
 34 35  1  0
 34 36  1  0
 34 37  1  0
 28 34  1  0
M  END
>  <ID_NEW>
CPDPP3026

>  <pEC50>
9.129137996413524

$$$$

  SciTegic12180814002D

 40 44  0  0  0  0            999 V2000
    0.2964   -1.8346    0.0000 C   0  0
   -0.4758   -2.2735    0.0000 C   0  0
   -0.4838   -3.1622    0.0000 C   0  0
    0.2834   -3.6143    0.0000 C   0  0
    1.0611   -3.1680    0.0000 C   0  0
    1.0609   -2.2832    0.0000 C   0  0
    1.8285   -3.6146    0.0000 O   0  0
    0.2793   -4.4987    0.0000 C   0  0
    0.3015   -0.9504    0.0000 S   0  0
    1.1859   -0.9551    0.0000 O   0  0
   -0.5879   -0.9490    0.0000 O   0  0
   -1.9972    1.2583    0.0000 C   0  0
   -1.9984    0.3727    0.0000 C   0  0
   -1.2336   -0.0694    0.0000 C   0  0
   -0.4671    0.3731    0.0000 C   0  0
   -0.4700    1.2620    0.0000 C   0  0
   -1.2354    1.7003    0.0000 C   0  0
    0.2929    1.7064    0.0000 C   0  0
    0.2980   -0.0674    0.0000 N   0  0
    1.0630    1.2674    0.0000 C   0  0
   -2.7643    1.7008    0.0000 C   0  0
   -2.7592    2.5839    0.0000 C   0  0
   -3.5254    3.0264    0.0000 C   0  0
   -4.2932    2.5832    0.0000 C   0  0
   -4.2900    1.6930    0.0000 C   0  0
   -3.5232    1.2546    0.0000 C   0  0
   -5.0618    3.0252    0.0000 C   0  0
   -4.6208    3.8000    0.0000 F   0  0
   -5.5083    2.2583    0.0000 F   0  0
   -5.8333    3.4750    0.0000 F   0  0
    1.0583    0.3750    0.0000 C   0  0
   -0.4365   -5.0178    0.0000 N   0  0
   -0.1671   -5.8602    0.0000 O   0  0
    0.7174   -5.8643    0.0000 C   0  0
    0.9945   -5.0245    0.0000 N   0  0
    1.1583   -6.6250    0.0000 O   0  0
    1.6875    1.9000    0.0000 C   0  0
    1.9208    1.0417    0.0000 C   0  0
    2.7125   -3.6125    0.0000 C   0  0
    3.1563   -4.3770    0.0000 C   0  0
  1  2  2  0
  2  3  1  0
  3  4  2  0
  4  5  1  0
  5  6  2  0
  6  1  1  0
  5  7  1  0
  4  8  1  0
  1  9  1  0
  9 10  2  0
  9 11  2  0
 12 13  2  0
 13 14  1  0
 14 15  2  0
 15 16  1  0
 16 17  2  0
 17 12  1  0
 16 18  1  0
 15 19  1  0
 18 20  1  0
 12 21  1  0
 21 22  2  0
 22 23  1  0
 23 24  2  0
 24 25  1  0
 25 26  2  0
 26 21  1  0
 24 27  1  0
 27 28  1  0
 27 29  1  0
 27 30  1  0
 19 31  1  0
 20 31  1  0
 19  9  1  0
  8 32  2  0
 32 33  1  0
 33 34  1  0
 34 35  1  0
 35  8  1  0
 34 36  2  0
 20 37  1  0
 20 38  1  0
  7 39  1  0
 39 40  1  0
M  END
>  <ID_NEW>
CPDPP3027

>  <pEC50>
9.120089190873351

$$$$

  SciTegic12180812442D

 32 34  0  0  0  0            999 V2000
    0.5728   -6.6075    0.0000 C   0  0
    1.0127   -7.3082    0.0000 C   0  0
    1.8375   -7.2768    0.0000 C   0  0
    2.2236   -6.5453    0.0000 C   0  0
    1.7787   -5.8440    0.0000 C   0  0
    0.9554   -5.8789    0.0000 C   0  0
   -0.2515   -6.6392    0.0000 O   0  0
    0.5137   -5.1821    0.0000 C   0  0
    3.0480   -6.5124    0.0000 S   0  0
   -0.6912   -5.9412    0.0000 C   0  0
   -1.4842   -6.1842    0.0000 C   0  0
   -1.6692   -6.9881    0.0000 O   0  0
   -2.0880   -5.6219    0.0000 O   0  0
    3.4317   -5.7821    0.0000 C   0  0
    7.6966   -5.8999    0.0000 C   0  0
    7.8174   -6.7184    0.0000 C   0  0
    7.1697   -7.2303    0.0000 C   0  0
    6.4011   -6.9248    0.0000 C   0  0
    6.2839   -6.1026    0.0000 C   0  0
    6.9326   -5.5944    0.0000 C   0  0
    8.5842   -7.0227    0.0000 S   0  0
    5.5184   -5.7948    0.0000 C   0  0
    4.8195   -6.2306    0.0000 S   0  0
    4.1867   -5.7013    0.0000 C   0  0
    4.4945   -4.9358    0.0000 C   0  0
    5.3175   -4.9921    0.0000 N   0  0
    9.2311   -6.5108    0.0000 F   0  0
    8.7041   -7.8389    0.0000 F   0  0
    8.6797   -6.2032    0.0000 F   0  0
    9.3555   -7.3209    0.0000 F   0  0
    8.0945   -7.6820    0.0000 F   0  0
    4.0562   -4.2369    0.0000 C   0  0
  4  5  1  0
  7 10  1  0
  2  3  1  0
 10 11  1  0
  5  6  2  0
 11 12  1  0
  6  1  1  0
 11 13  2  0
  1  2  2  0
  1  7  1  0
  3  4  2  0
  6  8  1  0
  9 14  1  0
  4  9  1  0
 16 17  1  0
 19 20  2  0
 23 24  1  0
 24 25  2  0
 25 26  1  0
 26 22  2  0
 20 15  1  0
 21 27  1  0
 15 16  2  0
 21 28  1  0
 16 21  1  0
 21 29  1  0
 17 18  2  0
 21 30  1  0
 19 22  1  0
 21 31  1  0
 22 23  1  0
 25 32  1  0
 18 19  1  0
 14 24  1  0
M  END
>  <ID_NEW>
CPDPP3028

>  <pEC50>
9.097233654703686

$$$$

  SciTegic12180814002D

 38 42  0  0  0  0            999 V2000
    0.2834   -4.4946    0.0000 C   0  0
   -0.4436   -4.9903    0.0000 N   0  0
   -0.1964   -5.8376    0.0000 O   0  0
    0.6858   -5.8642    0.0000 C   0  0
    0.9836   -5.0335    0.0000 N   0  0
    1.2165   -6.5625    0.0000 O   0  0
    0.2964   -1.8346    0.0000 C   0  0
   -0.4758   -2.2735    0.0000 C   0  0
   -0.4838   -3.1622    0.0000 C   0  0
    0.2834   -3.6143    0.0000 C   0  0
    1.0611   -3.1680    0.0000 C   0  0
    1.0609   -2.2832    0.0000 C   0  0
    1.8285   -3.6146    0.0000 Br  0  0
    0.3015   -0.9504    0.0000 S   0  0
    1.1859   -0.9551    0.0000 O   0  0
   -0.5879   -0.9490    0.0000 O   0  0
   -1.9972    1.2583    0.0000 C   0  0
   -1.9984    0.3727    0.0000 C   0  0
   -1.2336   -0.0694    0.0000 C   0  0
   -0.4671    0.3731    0.0000 C   0  0
   -0.4700    1.2620    0.0000 C   0  0
   -1.2354    1.7003    0.0000 C   0  0
    0.2929    1.7064    0.0000 C   0  0
    0.2980   -0.0674    0.0000 N   0  0
    1.0630    1.2674    0.0000 C   0  0
   -2.7643    1.7008    0.0000 C   0  0
   -2.7592    2.5839    0.0000 C   0  0
   -3.5254    3.0264    0.0000 C   0  0
   -4.2932    2.5832    0.0000 C   0  0
   -4.2900    1.6930    0.0000 C   0  0
   -3.5232    1.2546    0.0000 C   0  0
   -5.0618    3.0252    0.0000 C   0  0
   -4.6208    3.8000    0.0000 F   0  0
   -5.5083    2.2583    0.0000 F   0  0
   -5.8333    3.4750    0.0000 F   0  0
    1.0583    0.3750    0.0000 C   0  0
    1.5042    2.0417    0.0000 C   0  0
    1.9500    1.2708    0.0000 C   0  0
  1  2  2  0
  2  3  1  0
  3  4  1  0
  4  5  1  0
  5  1  1  0
  4  6  2  0
  7  8  2  0
  8  9  1  0
  9 10  2  0
 10 11  1  0
 11 12  2  0
 12  7  1  0
 11 13  1  0
 10  1  1  0
  7 14  1  0
 14 15  2  0
 14 16  2  0
 17 18  2  0
 18 19  1  0
 19 20  2  0
 20 21  1  0
 21 22  2  0
 22 17  1  0
 21 23  1  0
 20 24  1  0
 23 25  1  0
 17 26  1  0
 26 27  2  0
 27 28  1  0
 28 29  2  0
 29 30  1  0
 30 31  2  0
 31 26  1  0
 29 32  1  0
 32 33  1  0
 32 34  1  0
 32 35  1  0
 24 36  1  0
 25 36  1  0
 24 14  1  0
 25 37  1  0
 25 38  1  0
M  END
>  <ID_NEW>
CPDPP3029

>  <pEC50>
9.049166989148818

$$$$

  -MTS-   10172316532D 0   0.00000     0.00000     0

 38 41  0  0  1  0  0  0  0  0999 V2000
   -0.4290   -3.9930    0.0000 C   0  0  0  0  0  0  0  0  0  0  0  0
   -1.1130   -4.0810    0.0000 C   0  0  0  0  0  0  0  0  0  0  0  0
   -0.0650   -3.4000    0.0000 S   0  0  0  0  0  0  0  0  0  0  0  0
    0.0170   -4.5120    0.0000 N   0  0  0  0  0  0  0  0  0  0  0  0
   -1.3700   -4.7190    0.0000 C   0  0  0  0  0  0  0  0  0  0  0  0
   -1.5060   -3.5320    0.0000 C   0  0  0  0  0  0  0  0  0  0  0  0
    0.6060   -3.5550    0.0000 C   0  0  0  0  0  0  0  0  0  0  0  0
    0.6510   -4.2730    0.0000 C   0  0  0  0  0  0  0  0  0  0  0  0
   -2.0430   -4.8060    0.0000 C   0  0  0  0  0  0  0  0  0  0  0  0
   -2.2080   -3.6190    0.0000 C   0  0  0  0  0  0  0  0  0  0  0  0
    1.1340   -3.1100    0.0000 C   0  0  2  0  0  0  0  0  0  0  0  0
    1.2410   -4.6550    0.0000 C   0  0  0  0  0  0  0  0  0  0  0  0
   -2.4600   -4.2420    0.0000 C   0  0  0  0  0  0  0  0  0  0  0  0
    1.8800   -3.3650    0.0000 O   0  0  0  0  0  0  0  0  0  0  0  0
   -3.1340   -4.3310    0.0000 C   0  0  0  0  0  0  0  0  0  0  0  0
   -3.8080   -4.3970    0.0000 F   0  0  0  0  0  0  0  0  0  0  0  0
   -3.0710   -5.0110    0.0000 F   0  0  0  0  0  0  0  0  0  0  0  0
   -3.1960   -3.6620    0.0000 F   0  0  0  0  0  0  0  0  0  0  0  0
    2.6140   -3.6150    0.0000 C   0  0  0  0  0  0  0  0  0  0  0  0
    2.7710   -4.3660    0.0000 C   0  0  0  0  0  0  0  0  0  0  0  0
    3.4950   -4.6020    0.0000 C   0  0  0  0  0  0  0  0  0  0  0  0
    4.0740   -4.0960    0.0000 C   0  0  0  0  0  0  0  0  0  0  0  0
    3.9150   -3.3320    0.0000 C   0  0  0  0  0  0  0  0  0  0  0  0
    3.1790   -3.0980    0.0000 C   0  0  0  0  0  0  0  0  0  0  0  0
    3.6590   -5.3620    0.0000 O   0  0  0  0  0  0  0  0  0  0  0  0
    4.8080   -4.3230    0.0000 C   0  0  0  0  0  0  0  0  0  0  0  0
    5.0860   -5.1010    0.0000 N   0  0  0  0  0  0  0  0  0  0  0  0
    0.9270   -2.0030    0.0000 C   0  0  0  0  0  0  0  0  0  0  0  0
    1.7780   -1.2700    0.0000 C   0  0  0  0  0  0  0  0  0  0  0  0
    3.0820   -5.8790    0.0000 C   0  0  0  0  0  0  0  0  0  0  0  0
    3.2420   -6.6350    0.0000 C   0  0  0  0  0  0  0  0  0  0  0  0
    2.6650   -7.1560    0.0000 F   0  0  0  0  0  0  0  0  0  0  0  0
    3.9780   -6.8770    0.0000 F   0  0  0  0  0  0  0  0  0  0  0  0
    2.4660   -6.5960    0.0000 F   0  0  0  0  0  0  0  0  0  0  0  0
    5.3820   -3.8080    0.0000 N   0  0  0  0  0  0  0  0  0  0  0  0
    5.9770   -4.2110    0.0000 O   0  0  0  0  0  0  0  0  0  0  0  0
    5.8960   -5.0190    0.0000 C   0  0  0  0  0  0  0  0  0  0  0  0
    6.3630   -5.4040    0.0000 O   0  0  0  0  0  0  0  0  0  0  0  0
 37 38  2  0  0  0  0
 15 16  1  0  0  0  0
 15 17  1  0  0  0  0
 15 18  1  0  0  0  0
  7  8  2  0  0  0  0
 10 13  2  0  0  0  0
 14 19  1  0  0  0  0
 19 20  2  0  0  0  0
 20 21  1  0  0  0  0
 21 22  2  0  0  0  0
 22 23  1  0  0  0  0
 23 24  2  0  0  0  0
 24 19  1  0  0  0  0
  1  2  1  0  0  0  0
 21 25  1  0  0  0  0
  1  3  1  0  0  0  0
 22 26  1  0  0  0  0
  1  4  2  0  0  0  0
 26 27  1  0  0  0  0
  2  5  1  0  0  0  0
 11 28  1  1  0  0  0
  2  6  2  0  0  0  0
 28 29  1  0  0  0  0
  3  7  1  0  0  0  0
 25 30  1  0  0  0  0
  4  8  1  0  0  0  0
 30 31  1  0  0  0  0
  5  9  2  0  0  0  0
 31 32  1  0  0  0  0
  6 10  1  0  0  0  0
 31 33  1  0  0  0  0
  7 11  1  0  0  0  0
 31 34  1  0  0  0  0
  8 12  1  0  0  0  0
 26 35  2  0  0  0  0
  9 13  1  0  0  0  0
 35 36  1  0  0  0  0
 11 14  1  0  0  0  0
 27 37  1  0  0  0  0
 36 37  1  0  0  0  0
 13 15  1  0  0  0  0
M  END
>  <ID_NEW>
CPDPP3030

>  <pEC50>
9.011378995528146

$$$$

  SciTegic12180812592D

 37 41  0  0  0  0            999 V2000
   10.1426   -3.7231    0.0000 C   0  0
   10.6276   -4.3879    0.0000 N   0  0
   11.4127   -4.1342    0.0000 O   0  0
   11.4140   -3.3093    0.0000 C   0  0
   10.6299   -3.0532    0.0000 N   0  0
   12.0822   -2.8254    0.0000 O   0  0
    9.3157   -3.7178    0.0000 C   0  0
    7.6692   -3.7986    0.0000 C   0  0
    8.1109   -4.4930    0.0000 C   0  0
    8.9342   -4.4550    0.0000 C   0  0
    8.8640   -3.0248    0.0000 C   0  0
    8.0422   -3.0663    0.0000 C   0  0
    9.2402   -2.2906    0.0000 Cl  0  0
    6.8451   -3.8379    0.0000 O   0  0
    4.2298   -4.7090    0.0000 C   0  0
    4.9926   -5.0390    0.0000 S   0  0
    5.5422   -4.4239    0.0000 C   0  0
    5.1269   -3.7112    0.0000 C   0  0
    4.3126   -3.8858    0.0000 N   0  0
    5.4596   -2.9563    0.0000 C   0  0
    6.3628   -4.5071    0.0000 C   0  0
    3.5176   -5.1273    0.0000 C   0  0
    2.8022   -4.7170    0.0000 C   0  0
    2.0905   -5.1346    0.0000 C   0  0
    2.0962   -5.9614    0.0000 C   0  0
    2.8196   -6.3689    0.0000 C   0  0
    3.5283   -5.9489    0.0000 C   0  0
    1.3854   -6.3802    0.0000 C   0  0
    0.6673   -5.9740    0.0000 F   0  0
    1.3926   -7.2052    0.0000 F   0  0
    1.1648   -5.5852    0.0000 F   0  0
    6.7012   -5.2595    0.0000 C   0  0
    6.2156   -5.9264    0.0000 C   0  0
    6.5534   -6.6782    0.0000 C   0  0
    7.3750   -6.7619    0.0000 C   0  0
    7.8578   -6.0876    0.0000 C   0  0
    7.5173   -5.3384    0.0000 C   0  0
  7  1  1  0
  1  2  2  0
  2  3  1  0
  3  4  1  0
  4  5  1  0
  5  1  1  0
  4  6  2  0
 18 20  1  0
 17 21  1  0
 21 14  1  0
 15 16  1  0
 16 17  1  0
 17 18  2  0
 18 19  1  0
 19 15  2  0
 15 22  1  0
  8  9  2  0
  9 10  1  0
 10  7  2  0
  7 11  1  0
 11 12  2  0
 12  8  1  0
 11 13  1  0
  8 14  1  0
 22 23  2  0
 23 24  1  0
 24 25  2  0
 25 26  1  0
 26 27  2  0
 27 22  1  0
 25 28  1  0
 28 29  1  0
 28 30  1  0
 28 31  1  0
 21 32  1  0
 32 33  2  0
 33 34  1  0
 34 35  2  0
 35 36  1  0
 36 37  2  0
 37 32  1  0
M  END
>  <ID_NEW>
CPDPP3031

>  <pEC50>
9.00391435229605

$$$$

  SciTegic12180813102D

 49 53  0  0  0  0            999 V2000
   -1.7105    1.8692    0.0000 C   0  0
   -3.8996    2.6777    0.0000 C   0  0
   -4.2797    2.6230    0.0000 C   0  0
   -3.6861    3.0170    0.0000 S   0  0
   -3.6416    2.3758    0.0000 N   0  0
   -4.4243    2.2643    0.0000 C   0  0
   -4.5181    2.9387    0.0000 C   0  0
   -3.2982    2.9285    0.0000 C   0  0
   -3.2652    2.5224    0.0000 C   0  0
   -4.8183    2.2147    0.0000 C   0  0
   -4.9244    2.8936    0.0000 C   0  0
   -2.9913    3.1820    0.0000 C   0  0
   -2.9259    2.2951    0.0000 C   0  0
   -5.0643    2.5245    0.0000 C   0  0
   -2.6282    3.0554    0.0000 O   0  0
   -5.4506    2.4689    0.0000 C   0  0
   -5.8333    2.4490    0.0000 F   0  0
   -5.4169    2.0890    0.0000 F   0  0
   -5.4795    2.8629    0.0000 F   0  0
   -2.2333    3.0583    0.0000 C   0  0
   -2.0270    2.7190    0.0000 C   0  0
   -1.6493    2.7174    0.0000 C   0  0
   -1.4475    3.0559    0.0000 C   0  0
   -1.6485    3.4010    0.0000 C   0  0
   -2.0377    3.4000    0.0000 C   0  0
   -1.4477    2.3785    0.0000 O   0  0
   -1.0520    3.0554    0.0000 C   0  0
   -0.8656    2.7201    0.0000 N   0  0
   -0.8649    3.4023    0.0000 N   0  0
   -0.3944    3.2926    0.0000 O   0  0
   -0.3920    2.8345    0.0000 C   0  0
   -0.1431    2.5992    0.0000 O   0  0
   -2.2306    3.7285    0.0000 F   0  0
   -1.3955    1.3870    0.0000 C   0  0
   -1.6583    0.8693    0.0000 F   0  0
   -0.8221    1.4182    0.0000 F   0  0
   -1.9439    1.2092    0.0000 F   0  0
   -3.0616    3.5738    0.0000 C   0  0
   -2.7574    3.8305    0.0000 C   0  0
   -2.9532    1.8876    0.0000 N   0  0
   -3.3788    1.6665    0.0000 C   0  0
   -3.4024    1.2041    0.0000 C   0  0
   -3.0057    0.9584    0.0000 C   0  0
   -2.5929    1.1695    0.0000 C   0  0
   -2.5767    1.6304    0.0000 C   0  0
   -3.0383    0.4860    0.0000 C   0  0
   -3.4553    0.2922    0.0000 F   0  0
   -2.6539    0.2407    0.0000 F   0  0
   -3.4806    0.6413    0.0000 F   0  0
 46 49  1  0
 22 23  2  0
 23 24  1  0
  2  3  1  0
 24 25  2  0
 25 20  1  0
  2  4  1  0
 22 26  1  0
 26  1  1  0
  2  5  2  0
 23 27  1  0
  3  6  1  0
 27 28  1  0
  3  7  2  0
 27 29  2  0
  4  8  1  0
 29 30  1  0
  5  9  1  0
 28 31  1  0
  6 10  2  0
 31 32  2  0
 30 31  1  0
  7 11  1  0
 25 33  1  0
  8 12  1  0
  1 34  1  0
  9 13  1  0
 34 35  1  0
 10 14  1  0
 34 36  1  0
 12 15  1  0
 34 37  1  0
 14 16  1  0
 12 38  1  0
 16 17  1  0
 38 39  1  0
 13 40  1  0
 16 18  1  0
 40 41  1  0
 16 19  1  0
  8  9  2  0
 11 14  2  0
 15 20  1  0
 40 45  1  0
 41 42  1  0
 42 43  1  0
 43 44  1  0
 44 45  1  0
 43 46  1  0
 20 21  2  0
 46 47  1  0
 46 48  1  0
 21 22  1  0
M  END
>  <ID_NEW>
CPDPP3032

>  <pEC50>
9.002360454044732

$$$$

  SciTegic12180814002D

 38 42  0  0  0  0            999 V2000
    0.2964   -1.8346    0.0000 C   0  0
   -0.4758   -2.2735    0.0000 C   0  0
   -0.4838   -3.1622    0.0000 C   0  0
    0.2834   -3.6143    0.0000 C   0  0
    1.0611   -3.1680    0.0000 C   0  0
    1.0609   -2.2832    0.0000 C   0  0
    1.8285   -3.6146    0.0000 F   0  0
    0.2793   -4.4987    0.0000 C   0  0
    0.3015   -0.9504    0.0000 S   0  0
    1.1859   -0.9551    0.0000 O   0  0
   -0.5879   -0.9490    0.0000 O   0  0
   -1.9972    1.2583    0.0000 C   0  0
   -1.9984    0.3727    0.0000 C   0  0
   -1.2336   -0.0694    0.0000 C   0  0
   -0.4671    0.3731    0.0000 C   0  0
   -0.4700    1.2620    0.0000 C   0  0
   -1.2354    1.7003    0.0000 C   0  0
    0.2929    1.7064    0.0000 C   0  0
    0.2980   -0.0674    0.0000 N   0  0
    1.0630    1.2674    0.0000 C   0  0
   -2.7643    1.7008    0.0000 C   0  0
   -2.7592    2.5839    0.0000 C   0  0
   -3.5254    3.0264    0.0000 C   0  0
   -4.2932    2.5832    0.0000 C   0  0
   -4.2900    1.6930    0.0000 C   0  0
   -3.5232    1.2546    0.0000 C   0  0
   -5.0618    3.0252    0.0000 C   0  0
   -4.6208    3.8000    0.0000 F   0  0
   -5.5083    2.2583    0.0000 F   0  0
   -5.8333    3.4750    0.0000 F   0  0
    1.0583    0.3750    0.0000 C   0  0
   -0.4365   -5.0178    0.0000 N   0  0
   -0.1671   -5.8602    0.0000 O   0  0
    0.7174   -5.8643    0.0000 C   0  0
    0.9945   -5.0245    0.0000 N   0  0
    1.1583   -6.6250    0.0000 O   0  0
    1.6875    1.9000    0.0000 C   0  0
    1.9208    1.0417    0.0000 C   0  0
  1  2  2  0
  2  3  1  0
  3  4  2  0
  4  5  1  0
  5  6  2  0
  6  1  1  0
  5  7  1  0
  4  8  1  0
  1  9  1  0
  9 10  2  0
  9 11  2  0
 12 13  2  0
 13 14  1  0
 14 15  2  0
 15 16  1  0
 16 17  2  0
 17 12  1  0
 16 18  1  0
 15 19  1  0
 18 20  1  0
 12 21  1  0
 21 22  2  0
 22 23  1  0
 23 24  2  0
 24 25  1  0
 25 26  2  0
 26 21  1  0
 24 27  1  0
 27 28  1  0
 27 29  1  0
 27 30  1  0
 19 31  1  0
 20 31  1  0
 19  9  1  0
  8 32  2  0
 32 33  1  0
 33 34  1  0
 34 35  1  0
 35  8  1  0
 34 36  2  0
 20 37  1  0
 20 38  1  0
M  END
>  <ID_NEW>
CPDPP3033

>  <pEC50>
8.952112301623938

$$$$

  SciTegic12180812582D

 36 39  0  0  0  0            999 V2000
   -9.0165    1.0973    0.0000 C   0  0
   -8.1512    0.5959    0.0000 C   0  0
   -9.0149    2.0973    0.0000 C   0  0
   -7.2844    1.0946    0.0000 C   0  0
   -8.1481    2.5959    0.0000 C   0  0
   -5.3316    3.7940    0.0000 C   0  0
   -7.2829    2.0946    0.0000 C   0  0
   -4.9234    4.7070    0.0000 O   0  0
   -5.5032    2.1851    0.0000 N   0  0
   -4.8329    2.9272    0.0000 O   0  0
   -9.8833    0.5986    0.0000 O   0  0
   -8.1466    3.5959    0.0000 Cl  0  0
   -6.4161    2.5933    0.0000 C   0  0
   -6.3100    3.5876    0.0000 N   0  0
  -14.1027   -1.6154    0.0000 C   0  0
  -14.5108   -2.5283    0.0000 C   0  0
  -13.9243   -3.3382    0.0000 C   0  0
  -12.9296   -3.2352    0.0000 C   0  0
  -12.5215   -2.3223    0.0000 C   0  0
  -13.1080   -1.5124    0.0000 C   0  0
  -14.3324   -4.2511    0.0000 C   0  0
  -12.6998   -0.5995    0.0000 C   0  0
  -11.7214   -0.3931    0.0000 S   0  0
  -11.6153    0.6013    0.0000 C   0  0
  -12.5282    1.0094    0.0000 C   0  0
  -13.1985    0.2673    0.0000 N   0  0
  -12.7346    1.9879    0.0000 C   0  0
  -10.7485    1.1000    0.0000 C   0  0
  -13.5563   -4.8817    0.0000 F   0  0
  -14.8929   -5.0793    0.0000 F   0  0
  -15.2063   -3.7650    0.0000 F   0  0
  -13.6852    2.2984    0.0000 O   0  0
  -13.8916    3.2769    0.0000 C   0  0
  -14.8422    3.5873    0.0000 C   0  0
  -15.0486    4.5658    0.0000 O   0  0
  -15.9992    4.8763    0.0000 C   0  0
  2  4  1  0
  3  5  2  0
  4  7  2  0
  6  8  2  0
  5  7  1  0
  1  2  2  0
  1  3  1  0
  9 10  1  0
 17 18  2  0
 20 22  1  0
 21 29  1  0
 22 23  1  0
 21 30  1  0
 21 31  1  0
 18 19  1  0
 16 17  1  0
 19 20  2  0
 23 24  1  0
 24 25  2  0
 25 26  1  0
 26 22  2  0
 20 15  1  0
 25 27  1  0
 15 16  2  0
 13 14  1  0
 24 28  1  0
 17 21  1  0
 33 34  1  0
 34 35  1  0
 35 36  1  0
 27 32  1  0
 32 33  1  0
  9 13  2  0
  1 11  1  0
  5 12  1  0
  7 13  1  0
  6 14  1  0
  6 10  1  0
 11 28  1  0
M  END
>  <ID_NEW>
CPDPP3034

>  <pEC50>
8.947487724307676

$$$$

  SciTegic12180813012D

 39 43  0  0  0  0            999 V2000
    3.6426    2.3644    0.0000 C   0  0
    4.1276    1.6996    0.0000 N   0  0
    4.9127    1.9533    0.0000 O   0  0
    4.9140    2.7782    0.0000 C   0  0
    4.1299    3.0343    0.0000 N   0  0
    5.5822    3.2621    0.0000 O   0  0
    2.8157    2.3697    0.0000 C   0  0
    1.1692    2.2889    0.0000 C   0  0
    1.6109    1.5945    0.0000 C   0  0
    2.4342    1.6325    0.0000 C   0  0
    2.3640    3.0627    0.0000 C   0  0
    1.5422    3.0212    0.0000 C   0  0
    2.7402    3.7969    0.0000 Cl  0  0
    0.3451    2.2496    0.0000 O   0  0
   -2.2702    1.3785    0.0000 C   0  0
   -1.5074    1.0485    0.0000 S   0  0
   -0.9578    1.6636    0.0000 C   0  0
   -1.3731    2.3763    0.0000 C   0  0
   -2.1874    2.2017    0.0000 N   0  0
   -1.0404    3.1312    0.0000 C   0  0
   -0.1372    1.5804    0.0000 C   0  0
   -2.9824    0.9602    0.0000 C   0  0
   -3.6978    1.3705    0.0000 C   0  0
   -4.4095    0.9529    0.0000 C   0  0
   -4.4038    0.1261    0.0000 C   0  0
   -3.6804   -0.2814    0.0000 C   0  0
   -2.9717    0.1386    0.0000 C   0  0
   -5.1146   -0.2927    0.0000 C   0  0
   -5.8327    0.1135    0.0000 F   0  0
   -5.1074   -1.1177    0.0000 F   0  0
   -5.3352    0.5023    0.0000 F   0  0
    0.2012    0.8280    0.0000 C   0  0
   -0.2668   -0.6660    0.0000 C   0  0
   -0.9762   -1.0872    0.0000 C   0  0
   -0.9636   -1.9103    0.0000 C   0  0
   -0.2432   -2.3120    0.0000 C   0  0
    0.4662   -1.8844    0.0000 C   0  0
    0.4502   -1.0626    0.0000 C   0  0
   -0.2812    0.1587    0.0000 C   0  0
  5  1  1  0
  4  6  2  0
 18 20  1  0
 17 21  1  0
 21 14  1  0
 15 16  1  0
 16 17  1  0
 17 18  2  0
 18 19  1  0
 19 15  2  0
 15 22  1  0
  8  9  2  0
  9 10  1  0
 10  7  2  0
  7 11  1  0
 11 12  2  0
 12  8  1  0
 11 13  1  0
  8 14  1  0
 22 23  2  0
 23 24  1  0
 24 25  2  0
 25 26  1  0
 26 27  2  0
 27 22  1  0
 25 28  1  0
 28 29  1  0
 28 30  1  0
 28 31  1  0
 21 32  1  0
 32 39  1  0
  7  1  1  0
  1  2  2  0
  2  3  1  0
  3  4  1  0
 39 33  1  0
 33 34  2  0
 34 35  1  0
 35 36  2  0
 36 37  1  0
 37 38  2  0
 38 33  1  0
  4  5  1  0
M  END
>  <ID_NEW>
CPDPP3035

>  <pEC50>
8.886607022631676

$$$$

  SciTegic12180814032D

 38 42  0  0  0  0            999 V2000
   -0.7181   -0.1583    0.0000 C   0  0
   -0.7193   -0.9857    0.0000 C   0  0
   -0.0044   -1.3985    0.0000 C   0  0
    0.7120   -0.9852    0.0000 C   0  0
    0.7091   -0.1547    0.0000 C   0  0
   -0.0062    0.2545    0.0000 C   0  0
    1.4271   -1.3966    0.0000 C   0  0
   -1.4327    0.2540    0.0000 C   0  0
    1.4235   -2.2219    0.0000 C   0  0
    2.1378   -2.6332    0.0000 C   0  0
    2.1338   -0.9827    0.0000 C   0  0
    2.8487   -1.3903    0.0000 C   0  0
    2.8557   -2.2166    0.0000 C   0  0
    3.6438   -2.4653    0.0000 N   0  0
    4.1238   -1.7926    0.0000 C   0  0
    3.6324   -1.1283    0.0000 C   0  0
    3.8806   -0.3415    0.0000 C   0  0
    2.8456   -0.8801    0.0000 C   0  0
    3.9054   -3.2477    0.0000 S   0  0
    3.3586   -3.8655    0.0000 O   0  0
    4.7138   -3.4124    0.0000 C   0  0
    3.0819   -3.2979    0.0000 O   0  0
    4.9706   -4.1933    0.0000 C   0  0
    5.7782   -4.3581    0.0000 C   0  0
    6.3259   -3.7400    0.0000 C   0  0
    6.0604   -2.9544    0.0000 C   0  0
    5.2535   -2.7932    0.0000 C   0  0
    6.6050   -2.3347    0.0000 O   0  0
    7.1345   -3.9036    0.0000 C   0  0
   -2.0843    0.6347    0.0000 F   0  0
   -1.5665    1.1048    0.0000 F   0  0
   -2.2362   -0.0511    0.0000 F   0  0
    7.4140   -2.4965    0.0000 C   0  0
    7.4805   -4.6511    0.0000 N   0  0
    8.3001   -4.5568    0.0000 C   0  0
    8.4637   -3.7481    0.0000 O   0  0
    7.7452   -3.3428    0.0000 N   0  0
    8.8581   -5.1644    0.0000 O   0  0
 14 19  1  0
  4  5  1  0
 19 20  2  0
  9 10  1  0
 19 21  1  0
 10 13  2  0
 19 22  2  0
  2  3  1  0
 21 23  2  0
 12 11  2  0
 23 24  1  0
 11  7  1  0
 24 25  2  0
 12 13  1  0
 25 26  1  0
  5  6  2  0
 26 27  2  0
 27 21  1  0
  6  1  1  0
 26 28  1  0
  1  2  2  0
 25 29  1  0
  4  7  1  0
  3  4  2  0
 13 14  1  0
  8 30  1  0
  8 31  1  0
  8 32  1  0
 28 33  1  0
 14 15  1  0
 15 16  1  0
 16 12  1  0
 29 34  1  0
  1  8  1  0
 16 17  1  0
 16 18  1  0
 34 35  1  0
 35 36  1  0
 36 37  1  0
 37 29  2  0
  7  9  2  0
 35 38  2  0
M  END
>  <ID_NEW>
CPDPP3036

>  <pEC50>
8.87490592297351

$$$$

  SciTegic12180813082D

 38 42  0  0  0  0            999 V2000
    4.1465   -0.8714    0.0000 C   0  0
    4.1890   -1.7544    0.0000 N   0  0
    5.0451   -1.9881    0.0000 O   0  0
    5.5348   -1.2459    0.0000 C   0  0
    4.9787   -0.5562    0.0000 N   0  0
    6.4173   -1.2049    0.0000 O   0  0
   -1.9096    1.9543    0.0000 C   0  0
   -1.0944    1.5907    0.0000 S   0  0
   -0.5031    2.2519    0.0000 C   0  0
   -0.9557    3.0230    0.0000 C   0  0
   -1.8203    2.8358    0.0000 N   0  0
   -0.5981    3.8323    0.0000 C   0  0
    0.3803    2.1645    0.0000 C   0  0
    0.7436    1.3579    0.0000 O   0  0
    0.9002    2.8754    0.0000 C   0  0
    1.7835    2.7882    0.0000 F   0  0
    0.5368    3.6820    0.0000 F   0  0
    1.4593    2.1904    0.0000 F   0  0
   -2.6812    1.5090    0.0000 C   0  0
    3.2052    0.3390    0.0000 C   0  0
    2.3823    0.6800    0.0000 C   0  0
    1.6826    0.1385    0.0000 C   0  0
    1.8046   -0.7437    0.0000 C   0  0
    2.6279   -1.0822    0.0000 C   0  0
    3.3286   -0.5389    0.0000 C   0  0
    0.8614    0.4777    0.0000 C   0  0
    2.7489   -1.9583    0.0000 C   0  0
    2.4224   -2.7806    0.0000 C   0  0
    3.2987   -2.6597    0.0000 C   0  0
   -4.2948    0.7203    0.0000 C   0  0
   -5.0582    0.2740    0.0000 C   0  0
   -5.8274    0.7174    0.0000 F   0  0
   -5.0524   -0.6118    0.0000 F   0  0
   -5.8327   -0.1639    0.0000 F   0  0
   -3.4270    2.0040    0.0000 C   0  0
   -4.2326    1.6160    0.0000 C   0  0
   -3.5600    0.2294    0.0000 C   0  0
   -2.7545    0.6217    0.0000 C   0  0
  1  2  2  0
  2  3  1  0
  3  4  1  0
  4  5  1  0
  5  1  1  0
  4  6  2  0
 15 16  1  0
 15 17  1  0
 15 18  1  0
  7 19  1  0
  7  8  1  0
  8  9  1  0
  9 10  2  0
 10 11  1  0
 11  7  2  0
 10 12  1  0
  9 13  1  0
 13 14  1  0
 13 15  1  0
 20 21  2  0
 21 22  1  0
 22 23  2  0
 23 24  1  0
 24 25  2  0
 25 20  1  0
 25  1  1  0
 22 26  1  0
 26 14  1  0
 24 27  1  0
 28 27  1  0
 29 28  1  0
 27 29  1  0
 30 31  1  0
 31 32  1  0
 31 33  1  0
 31 34  1  0
 35 36  1  0
 35 19  2  0
 36 30  2  0
 30 37  1  0
 37 38  2  0
 38 19  1  0
M  END
>  <ID_NEW>
CPDPP3037

>  <pEC50>
8.853739895573309

$$$$

  SciTegic12180812332D

 34 37  0  0  0  0            999 V2000
   -0.4389    1.8009    0.0000 C   0  0
   -0.8566    1.3328    0.0000 C   0  0
   -0.6579    0.7376    0.0000 C   0  0
   -0.0451    0.6120    0.0000 C   0  0
    0.3718    1.0851    0.0000 C   0  0
    0.1733    1.6752    0.0000 C   0  0
    0.5875    2.1433    0.0000 C   0  0
    1.1999    2.0186    0.0000 N   0  0
    0.3893    2.7360    0.0000 N   0  0
   -1.0725    0.2699    0.0000 O   0  0
   -1.6849    0.3952    0.0000 C   0  0
   -2.0995   -0.0725    0.0000 C   0  0
   -2.7209   -0.0124    0.0000 S   0  0
   -2.9711   -0.5859    0.0000 C   0  0
   -2.5022   -1.0004    0.0000 N   0  0
   -1.9637   -0.6816    0.0000 C   0  0
   -1.3901   -0.9299    0.0000 C   0  0
   -1.3183   -1.5508    0.0000 C   0  0
   -0.7447   -1.7990    0.0000 C   0  0
   -0.6730   -2.4199    0.0000 C   0  0
   -3.5814   -0.7209    0.0000 C   0  0
   -4.0035   -0.2608    0.0000 C   0  0
   -4.6132   -0.3955    0.0000 C   0  0
   -4.7981   -0.9920    0.0000 C   0  0
   -4.3762   -1.4540    0.0000 C   0  0
   -3.7680   -1.3169    0.0000 C   0  0
   -5.4047   -1.1278    0.0000 C   0  0
   -5.8320   -0.6674    0.0000 F   0  0
   -5.5923   -1.7241    0.0000 F   0  0
   -5.3814   -0.5034    0.0000 F   0  0
    0.8035    3.2040    0.0000 C   0  0
    0.6052    3.7968    0.0000 O   0  0
    1.4159    3.0793    0.0000 O   0  0
    0.9845    0.9616    0.0000 Br  0  0
  7  9  1  0
  3 10  1  0
 10 11  1  0
 11 12  1  0
 13 14  1  0
 12 13  1  0
 14 15  2  0
 15 16  1  0
 16 12  2  0
 16 17  1  0
 17 18  1  0
 18 19  1  0
 19 20  1  0
 14 21  1  0
 21 22  2  0
 22 23  1  0
 23 24  2  0
 24 25  1  0
 25 26  2  0
 26 21  1  0
 24 27  1  0
 27 28  1  0
 27 29  1  0
 27 30  1  0
  9 31  1  0
 31 32  2  0
 31 33  1  0
  1  2  2  0
  2  3  1  0
  3  4  2  0
  4  5  1  0
  5  6  2  0
  6  1  1  0
  6  7  1  0
  7  8  2  0
  8 33  1  0
  5 34  1  0
M  END
>  <ID_NEW>
CPDPP3038

>  <pEC50>
8.846977604167948

$$$$

  SciTegic12180813592D

 38 42  0  0  0  0            999 V2000
    1.8306    0.8125    0.0000 C   0  0
    1.8318    1.6399    0.0000 C   0  0
    2.5420    2.0527    0.0000 C   0  0
    3.2662    1.6394    0.0000 C   0  0
    3.2633    0.8089    0.0000 C   0  0
    2.5438    0.3997    0.0000 C   0  0
    3.9804    0.3937    0.0000 Cl  0  0
    3.9813    2.0508    0.0000 C   0  0
    1.1119    0.3960    0.0000 S   0  0
    1.5209   -0.3250    0.0000 O   0  0
    0.6917   -0.4250    0.0000 O   0  0
   -4.4818    0.3046    0.0000 C   0  0
   -3.9928   -0.3986    0.0000 C   0  0
   -3.1369   -0.3254    0.0000 C   0  0
   -2.7747    0.4514    0.0000 C   0  0
   -3.2688    1.1550    0.0000 C   0  0
   -4.1196    1.0808    0.0000 C   0  0
   -5.3407    0.2287    0.0000 C   0  0
   -5.8318    0.9327    0.0000 F   0  0
   -5.7016   -0.5463    0.0000 F   0  0
   -5.1898    1.0758    0.0000 F   0  0
   -1.9172    0.5266    0.0000 C   0  0
   -1.4569   -0.1356    0.0000 C   0  0
   -0.6587   -0.0671    0.0000 C   0  0
   -1.5794    1.2502    0.0000 C   0  0
   -0.7828    1.3221    0.0000 C   0  0
   -0.3191    0.6577    0.0000 C   0  0
    0.4507    0.8918    0.0000 N   0  0
    0.4660    1.7020    0.0000 C   0  0
   -0.2973    1.9638    0.0000 C   0  0
   -0.2009   -0.7232    0.0000 C   0  0
   -0.7623    2.6171    0.0000 C   0  0
    0.0349    2.6904    0.0000 C   0  0
    4.7338    1.7184    0.0000 N   0  0
    5.2868    2.3307    0.0000 O   0  0
    4.8753    3.0458    0.0000 C   0  0
    4.0682    2.8754    0.0000 N   0  0
    5.2120    3.7990    0.0000 O   0  0
  6  1  1  0
  5  7  1  0
  4  8  1  0
  1  9  1  0
  1  2  2  0
  2  3  1  0
  3  4  2  0
  9 10  2  0
  9 11  2  0
  4  5  1  0
  5  6  2  0
 15 22  1  0
 18 19  1  0
 18 20  1  0
 18 21  1  0
 12 13  2  0
 13 14  1  0
 14 15  2  0
 15 16  1  0
 16 17  2  0
 17 12  1  0
 12 18  1  0
 24 27  2  0
 22 23  2  0
 26 25  2  0
 27 28  1  0
 28 29  1  0
 29 30  1  0
 30 26  1  0
 25 22  1  0
 24 31  1  0
 26 27  1  0
 30 32  1  0
 23 24  1  0
 30 33  1  0
 28  9  1  0
  8 34  2  0
 34 35  1  0
 35 36  1  0
 36 37  1  0
 37  8  1  0
 36 38  2  0
M  END
>  <ID_NEW>
CPDPP3039

>  <pEC50>
8.846303146317377

$$$$

  -MTS-   10172316532D 0   0.00000     0.00000     0

 41 45  0  0  0  0  0  0  0  0999 V2000
    8.6580   -4.5770    0.0000 C   0  0  0  0  0  0  0  0  0  0  0  0
    7.8330   -4.6300    0.0000 C   0  0  0  0  0  0  0  0  0  0  0  0
    7.4670   -5.3700    0.0000 C   0  0  0  0  0  0  0  0  0  0  0  0
    7.9260   -6.0580    0.0000 C   0  0  0  0  0  0  0  0  0  0  0  0
    8.7550   -6.0010    0.0000 C   0  0  0  0  0  0  0  0  0  0  0  0
    9.1170   -5.2610    0.0000 C   0  0  0  0  0  0  0  0  0  0  0  0
    6.6440   -5.4240    0.0000 O   0  0  0  0  0  0  0  0  0  0  0  0
    9.2160   -6.6860    0.0000 Cl  0  0  0  0  0  0  0  0  0  0  0  0
    4.1840   -4.8550    0.0000 C   0  0  0  0  0  0  0  0  0  0  0  0
    3.4680   -5.2660    0.0000 C   0  0  1  0  0  0  0  0  0  0  0  0
    3.4610   -6.0900    0.0000 C   0  0  0  0  0  0  0  0  0  0  0  0
    2.7590   -4.8510    0.0000 C   0  0  0  0  0  0  0  0  0  0  0  0
    2.0410   -5.2580    0.0000 C   0  0  0  0  0  0  0  0  0  0  0  0
    2.0360   -6.0840    0.0000 C   0  0  2  0  0  0  0  0  0  0  0  0
    2.7500   -6.5030    0.0000 C   0  0  0  0  0  0  0  0  0  0  0  0
    1.3190   -6.4920    0.0000 C   0  0  0  0  0  0  0  0  0  0  0  0
    0.6070   -6.0750    0.0000 F   0  0  0  0  0  0  0  0  0  0  0  0
    1.3140   -7.3170    0.0000 F   0  0  0  0  0  0  0  0  0  0  0  0
    0.6000   -6.9000    0.0000 F   0  0  0  0  0  0  0  0  0  0  0  0
    4.9370   -5.1920    0.0000 S   0  0  0  0  0  0  0  0  0  0  0  0
    5.4900   -4.5800    0.0000 C   0  0  0  0  0  0  0  0  0  0  0  0
    5.0800   -3.8650    0.0000 C   0  0  0  0  0  0  0  0  0  0  0  0
    4.2730   -4.0340    0.0000 N   0  0  0  0  0  0  0  0  0  0  0  0
    5.4180   -3.1120    0.0000 C   0  0  0  0  0  0  0  0  0  0  0  0
    6.2380   -3.0280    0.0000 C   0  0  0  0  0  0  0  0  0  0  0  0
    6.5760   -2.2750    0.0000 C   0  0  0  0  0  0  0  0  0  0  0  0
    7.3970   -2.1910    0.0000 O   0  0  0  0  0  0  0  0  0  0  0  0
    7.7350   -1.4390    0.0000 C   0  0  0  0  0  0  0  0  0  0  0  0
    8.5550   -1.3550    0.0000 C   0  0  0  0  0  0  0  0  0  0  0  0
    9.0350   -2.0260    0.0000 C   0  0  0  0  0  0  0  0  0  0  0  0
    9.8550   -1.9430    0.0000 C   0  0  0  0  0  0  0  0  0  0  0  0
   10.1940   -1.1890    0.0000 C   0  0  0  0  0  0  0  0  0  0  0  0
    9.7060   -0.5190    0.0000 C   0  0  0  0  0  0  0  0  0  0  0  0
    8.8880   -0.6060    0.0000 C   0  0  0  0  0  0  0  0  0  0  0  0
    6.3110   -4.6690    0.0000 C   0  0  0  0  0  0  0  0  0  0  0  0
    9.9400   -5.2050    0.0000 C   0  0  0  0  0  0  0  0  0  0  0  0
   10.4680   -5.8350    0.0000 N   0  0  0  0  0  0  0  0  0  0  0  0
   11.2330   -5.5270    0.0000 O   0  0  0  0  0  0  0  0  0  0  0  0
   11.1770   -4.7040    0.0000 C   0  0  0  0  0  0  0  0  0  0  0  0
   10.3770   -4.5030    0.0000 N   0  0  0  0  0  0  0  0  0  0  0  0
   11.8100   -4.1750    0.0000 O   0  0  0  0  0  0  0  0  0  0  0  0
  3  4  2  0  0  0  0
  4  5  1  0  0  0  0
  5  6  2  0  0  0  0
 16 18  1  0  0  0  0
 16 19  1  0  0  0  0
 11 10  1  0  0  0  0
 11 15  1  0  0  0  0
 10 12  1  0  0  0  0
 12 13  1  0  0  0  0
 13 14  1  0  0  0  0
 14 15  1  0  0  0  0
 14 16  1  6  0  0  0
 10  9  1  1  0  0  0
 16 17  1  0  0  0  0
  9 20  1  0  0  0  0
 20 21  1  0  0  0  0
 21 22  2  0  0  0  0
 22 23  1  0  0  0  0
 23  9  2  0  0  0  0
 22 24  1  0  0  0  0
 24 25  1  0  0  0  0
 25 26  1  0  0  0  0
 26 27  1  0  0  0  0
 27 28  1  0  0  0  0
 28 29  1  0  0  0  0
 29 30  2  0  0  0  0
 30 31  1  0  0  0  0
 31 32  2  0  0  0  0
 32 33  1  0  0  0  0
 33 34  2  0  0  0  0
 34 29  1  0  0  0  0
 21 35  1  0  0  0  0
 35  7  1  0  0  0  0
  6 36  1  0  0  0  0
 36 37  2  0  0  0  0
  6  1  1  0  0  0  0
  3  7  1  0  0  0  0
  5  8  1  0  0  0  0
  1  2  2  0  0  0  0
 37 38  1  0  0  0  0
 38 39  1  0  0  0  0
 39 40  1  0  0  0  0
 40 36  1  0  0  0  0
  2  3  1  0  0  0  0
 39 41  2  0  0  0  0
V   10 M1
V   14 M1
M  END
>  <ID_NEW>
CPDPP3040

>  <pEC50>
8.826549469468963

$$$$

  SciTegic12180812582D

 37 40  0  0  0  0            999 V2000
   -8.6827    0.6314    0.0000 C   0  0
   -8.6811    1.6314    0.0000 C   0  0
   -7.8174    0.1301    0.0000 C   0  0
   -7.8143    2.1301    0.0000 C   0  0
   -6.9506    0.6288    0.0000 C   0  0
   -4.9977    3.3282    0.0000 C   0  0
   -6.9491    1.6288    0.0000 C   0  0
   -4.5896    4.2411    0.0000 O   0  0
   -5.1694    1.7193    0.0000 N   0  0
   -4.4991    2.4614    0.0000 O   0  0
   -9.5495    0.1328    0.0000 O   0  0
   -6.0854    0.1274    0.0000 Cl  0  0
   -6.0823    2.1274    0.0000 C   0  0
   -5.9762    3.1218    0.0000 N   0  0
  -13.7689   -2.0812    0.0000 C   0  0
  -14.1770   -2.9941    0.0000 C   0  0
  -13.5905   -3.8041    0.0000 C   0  0
  -12.5958   -3.7011    0.0000 C   0  0
  -12.1876   -2.7881    0.0000 C   0  0
  -12.7742   -1.9782    0.0000 C   0  0
  -13.9986   -4.7170    0.0000 C   0  0
  -12.3660   -1.0653    0.0000 C   0  0
  -11.3876   -0.8589    0.0000 S   0  0
  -11.2815    0.1355    0.0000 C   0  0
  -12.1944    0.5436    0.0000 C   0  0
  -12.8647   -0.1985    0.0000 N   0  0
  -12.4008    1.5221    0.0000 C   0  0
  -10.4147    0.6341    0.0000 C   0  0
  -13.2224   -5.3475    0.0000 F   0  0
  -14.5591   -5.5451    0.0000 F   0  0
  -14.8725   -4.2308    0.0000 F   0  0
  -13.3514    1.8326    0.0000 O   0  0
  -13.5578    2.8110    0.0000 C   0  0
  -14.5084    3.1215    0.0000 C   0  0
  -14.7148    4.1000    0.0000 O   0  0
  -15.6654    4.4105    0.0000 C   0  0
  -15.8718    5.3889    0.0000 C   0  0
  3  5  2  0
  4  7  2  0
  6  8  2  0
  5  7  1  0
  1  2  2  0
  1  3  1  0
  2  4  1  0
  9 10  1  0
 17 18  2  0
 20 22  1  0
 21 29  1  0
 22 23  1  0
 21 30  1  0
 21 31  1  0
 18 19  1  0
 16 17  1  0
 19 20  2  0
 23 24  1  0
 24 25  2  0
 25 26  1  0
 26 22  2  0
 20 15  1  0
 25 27  1  0
 15 16  2  0
 13 14  1  0
 24 28  1  0
 17 21  1  0
 34 35  1  0
 35 36  1  0
 33 34  1  0
 36 37  1  0
 27 32  1  0
 32 33  1  0
  9 13  2  0
  1 11  1  0
  5 12  1  0
  7 13  1  0
  6 14  1  0
  6 10  1  0
 11 28  1  0
M  END
>  <ID_NEW>
CPDPP3041

>  <pEC50>
8.815941031266279

$$$$

  SciTegic12180814002D

 38 42  0  0  0  0            999 V2000
    0.2964   -1.8346    0.0000 C   0  0
   -0.4758   -2.2735    0.0000 C   0  0
   -0.4838   -3.1622    0.0000 C   0  0
    0.2834   -3.6143    0.0000 C   0  0
    1.0611   -3.1680    0.0000 C   0  0
    1.0609   -2.2832    0.0000 C   0  0
    0.2793   -4.4987    0.0000 C   0  0
    0.3015   -0.9504    0.0000 S   0  0
    1.1859   -0.9551    0.0000 O   0  0
   -0.5879   -0.9490    0.0000 O   0  0
   -1.9972    1.2583    0.0000 C   0  0
   -1.9984    0.3727    0.0000 C   0  0
   -1.2336   -0.0694    0.0000 C   0  0
   -0.4671    0.3731    0.0000 C   0  0
   -0.4700    1.2620    0.0000 C   0  0
   -1.2354    1.7003    0.0000 C   0  0
    0.2929    1.7064    0.0000 C   0  0
    0.2980   -0.0674    0.0000 N   0  0
    1.0630    1.2674    0.0000 C   0  0
   -2.7643    1.7008    0.0000 C   0  0
   -2.7592    2.5839    0.0000 C   0  0
   -3.5254    3.0264    0.0000 C   0  0
   -4.2932    2.5832    0.0000 C   0  0
   -4.2900    1.6930    0.0000 C   0  0
   -3.5232    1.2546    0.0000 C   0  0
   -5.0618    3.0252    0.0000 C   0  0
   -4.6208    3.8000    0.0000 F   0  0
   -5.5083    2.2583    0.0000 F   0  0
   -5.8333    3.4750    0.0000 F   0  0
    1.0583    0.3750    0.0000 C   0  0
   -0.4365   -5.0178    0.0000 N   0  0
   -0.1671   -5.8602    0.0000 O   0  0
    0.7174   -5.8643    0.0000 C   0  0
    0.9945   -5.0245    0.0000 N   0  0
    1.1583   -6.6250    0.0000 O   0  0
    1.6875    1.9000    0.0000 C   0  0
    1.9208    1.0417    0.0000 C   0  0
    1.8371   -3.6173    0.0000 C   0  0
  1  2  2  0
  2  3  1  0
  3  4  2  0
  4  5  1  0
  5  6  2  0
  6  1  1  0
  4  7  1  0
  1  8  1  0
  8  9  2  0
  8 10  2  0
 11 12  2  0
 12 13  1  0
 13 14  2  0
 14 15  1  0
 15 16  2  0
 16 11  1  0
 15 17  1  0
 14 18  1  0
 17 19  1  0
 11 20  1  0
 20 21  2  0
 21 22  1  0
 22 23  2  0
 23 24  1  0
 24 25  2  0
 25 20  1  0
 23 26  1  0
 26 27  1  0
 26 28  1  0
 26 29  1  0
 18 30  1  0
 19 30  1  0
 18  8  1  0
  7 31  2  0
 31 32  1  0
 32 33  1  0
 33 34  1  0
 34  7  1  0
 33 35  2  0
 19 36  1  0
 19 37  1  0
  5 38  1  0
M  END
>  <ID_NEW>
CPDPP3042

>  <pEC50>
8.801107675970398

$$$$

  SciTegic12180813002D

 38 40  0  0  0  0            999 V2000
    8.1186   -5.0357    0.0000 N   0  0
    8.9026   -4.7788    0.0000 N   0  0
    8.9053   -3.9527    0.0000 C   0  0
    8.1148   -3.6996    0.0000 S   0  0
    7.6392   -4.3677    0.0000 C   0  0
    6.8169   -4.3693    0.0000 N   0  0
    9.5770   -3.4655    0.0000 C   0  0
   10.3312   -3.8001    0.0000 C   0  0
    9.4899   -2.6450    0.0000 C   0  0
    3.5895   -3.6907    0.0000 C   0  0
    3.8460   -4.4772    0.0000 C   0  0
    4.6538   -4.6469    0.0000 C   0  0
    5.2060   -4.0311    0.0000 C   0  0
    4.9445   -3.2427    0.0000 C   0  0
    4.1373   -3.0767    0.0000 C   0  0
    2.7820   -3.5213    0.0000 C   0  0
    2.5248   -2.7374    0.0000 C   0  0
    2.2316   -4.1360    0.0000 C   0  0
    3.0752   -2.1229    0.0000 C   0  0
    1.4243   -3.9667    0.0000 N   0  0
    6.0136   -4.1993    0.0000 S   0  0
    6.3827   -3.4592    0.0000 O   0  0
    5.8373   -5.0060    0.0000 O   0  0
    0.8740   -4.5813    0.0000 C   0  0
    0.0665   -4.4119    0.0000 C   0  0
    1.1310   -5.3652    0.0000 O   0  0
   -0.1872   -3.6296    0.0000 C   0  0
   -0.9938   -3.4601    0.0000 C   0  0
   -1.5451   -4.0750    0.0000 C   0  0
   -1.2842   -4.8622    0.0000 C   0  0
   -0.4782   -5.0280    0.0000 C   0  0
    0.3642   -3.0160    0.0000 O   0  0
    0.3583   -2.1875    0.0000 C   0  0
    1.0698   -1.7699    0.0000 C   0  0
   -2.3528   -3.9068    0.0000 C   0  0
   -2.6109   -3.1232    0.0000 F   0  0
   -2.9023   -4.5221    0.0000 F   0  0
   -3.1542   -3.6875    0.0000 F   0  0
 17 19  1  0
 11 12  1  0
 14 15  2  0
 13 21  1  0
 18 20  1  0
 21 22  2  0
 15 10  1  0
 21 23  2  0
 10 11  2  0
 21  6  1  0
 20 24  1  0
  1  2  1  0
 24 25  1  0
  2  3  2  0
 24 26  2  0
  3  4  1  0
 25 27  2  0
  4  5  1  0
 27 28  1  0
  5  1  2  0
 28 29  2  0
  5  6  1  0
 29 30  1  0
  3  7  1  0
 30 31  2  0
 31 25  1  0
  7  8  1  0
 27 32  1  0
  7  9  1  0
 32 33  1  0
 10 16  1  0
 33 34  1  0
 12 13  2  0
 29 35  1  0
 16 17  1  0
 35 36  1  0
 16 18  1  0
 35 37  1  0
 13 14  1  0
 35 38  1  0
M  END
>  <ID_NEW>
CPDPP3043

>  <pEC50>
8.797762511702965

$$$$

  SciTegic12180814002D

 38 42  0  0  0  0            999 V2000
    0.2881   -1.9638    0.0000 C   0  0
   -0.4841   -2.4027    0.0000 C   0  0
   -0.4921   -3.2914    0.0000 C   0  0
    0.2751   -3.7435    0.0000 C   0  0
    1.0528   -3.2972    0.0000 C   0  0
    1.0526   -2.4124    0.0000 C   0  0
    1.8202   -3.7438    0.0000 Cl  0  0
    0.2710   -4.6279    0.0000 C   0  0
    0.2932   -1.0796    0.0000 S   0  0
    1.1776   -1.0843    0.0000 O   0  0
   -0.5962   -1.0782    0.0000 O   0  0
   -4.2988    2.4750    0.0000 C   0  0
   -4.3000    1.5893    0.0000 C   0  0
   -3.5351    1.1473    0.0000 C   0  0
   -2.7687    1.5897    0.0000 C   0  0
   -2.7716    2.4787    0.0000 C   0  0
   -3.5369    2.9169    0.0000 C   0  0
   -5.0634    2.9165    0.0000 C   0  0
   -5.0636    3.7959    0.0000 F   0  0
   -5.8319    2.4705    0.0000 F   0  0
   -4.4426    3.5457    0.0000 F   0  0
   -2.0056    1.1458    0.0000 C   0  0
   -2.0068    0.2600    0.0000 C   0  0
   -1.2337   -0.1819    0.0000 C   0  0
   -1.2355    1.5835    0.0000 C   0  0
   -0.4709    1.1590    0.0000 C   0  0
   -0.4736    0.2604    0.0000 C   0  0
    0.2990   -0.1888    0.0000 N   0  0
    1.0793    0.2557    0.0000 C   0  0
    1.0820    1.1544    0.0000 C   0  0
    0.3044    1.6085    0.0000 C   0  0
    1.5250    1.9375    0.0000 C   0  0
    1.9750    1.1583    0.0000 C   0  0
   -0.4447   -5.1470    0.0000 N   0  0
   -0.1753   -5.9894    0.0000 O   0  0
    0.7092   -5.9935    0.0000 C   0  0
    0.9862   -5.1537    0.0000 N   0  0
    1.2258   -6.7115    0.0000 O   0  0
 12 13  2  0
 13 14  1  0
 14 15  2  0
 15 16  1  0
 16 17  2  0
 17 12  1  0
 12 18  1  0
 18 19  1  0
 18 20  1  0
 18 21  1  0
 24 27  2  0
 22 23  2  0
 26 25  2  0
 25 22  1  0
 23 24  1  0
 22 15  1  0
 26 27  1  0
 26 31  1  0
 27 28  1  0
 28 29  1  0
 29 30  1  0
 30 31  1  0
 28  9  1  0
 30 32  1  0
 30 33  1  0
  1  2  2  0
  2  3  1  0
  3  4  2  0
  4  5  1  0
  5  6  2  0
  6  1  1  0
  5  7  1  0
  4  8  1  0
  1  9  1  0
  9 10  2  0
  9 11  2  0
  8 34  2  0
 34 35  1  0
 35 36  1  0
 36 37  1  0
 37  8  1  0
 36 38  2  0
M  END
>  <ID_NEW>
CPDPP3044

>  <pEC50>
8.769009229250312

$$$$

  SciTegic12180813062D

 39 42  0  0  0  0            999 V2000
    3.1436   -1.6530    0.0000 C   0  0
    2.4195   -2.0485    0.0000 C   0  0
    2.3935   -2.8710    0.0000 C   0  0
    3.0990   -3.3036    0.0000 C   0  0
    3.8287   -2.9099    0.0000 C   0  0
    3.8472   -2.0819    0.0000 C   0  0
    4.5323   -3.3387    0.0000 C   0  0
    4.5999   -4.1624    0.0000 N   0  0
    5.4023   -4.3609    0.0000 C   0  0
    5.8329   -3.6517    0.0000 C   0  0
    5.2944   -3.0205    0.0000 S   0  0
    5.7169   -5.1250    0.0000 C   0  0
    6.6542   -3.5901    0.0000 C   0  0
    1.7046   -1.6162    0.0000 C   0  0
    1.1066   -2.1856    0.0000 F   0  0
    1.0861   -1.0666    0.0000 F   0  0
    2.1982   -0.9477    0.0000 F   0  0
    7.0134   -2.8365    0.0000 O   0  0
    7.1206   -4.2702    0.0000 C   0  0
    7.9482   -4.2004    0.0000 C   0  0
    9.0173   -1.9587    0.0000 C   0  0
    8.1896   -2.0285    0.0000 C   0  0
    7.8377   -2.7781    0.0000 C   0  0
    8.3022   -3.4546    0.0000 C   0  0
    9.1318   -3.3885    0.0000 C   0  0
    9.4894   -2.6406    0.0000 C   0  0
   10.3133   -2.5729    0.0000 C   0  0
    9.6002   -4.0723    0.0000 C   0  0
    9.2480   -4.8126    0.0000 O   0  0
    9.7163   -5.4964    0.0000 C   0  0
    9.3588   -6.2443    0.0000 C   0  0
    9.9926   -6.7799    0.0000 F   0  0
    8.8817   -6.9213    0.0000 F   0  0
    8.6505   -5.8238    0.0000 F   0  0
   10.8534   -3.1974    0.0000 N   0  0
   11.6160   -2.8784    0.0000 O   0  0
   11.5483   -2.0545    0.0000 C   0  0
   10.7438   -1.8645    0.0000 N   0  0
   12.1292   -1.4667    0.0000 O   0  0
 13 18  1  0
 13 19  1  0
 20 19  1  0
  3  4  2  0
  5  7  1  0
  8  9  1  0
  4  5  1  0
  2  3  1  0
  5  6  2  0
  7  8  2  0
  9 10  2  0
 10 11  1  0
 11  7  1  0
  6  1  1  0
 10 13  1  0
  1  2  2  0
  9 12  1  0
 21 22  2  0
 22 23  1  0
 23 24  2  0
 24 25  1  0
 25 26  2  0
 26 21  1  0
 26 27  1  0
 25 28  1  0
 28 29  1  0
 29 30  1  0
 30 31  1  0
 31 32  1  0
 31 33  1  0
 31 34  1  0
 18 23  1  0
 27 35  2  0
  2 14  1  0
 14 15  1  0
 14 16  1  0
 35 36  1  0
 36 37  1  0
 37 38  1  0
 38 27  1  0
 14 17  1  0
 37 39  2  0
M  END
>  <ID_NEW>
CPDPP3045

>  <pEC50>
8.76855888203276

$$$$

  SciTegic12180813042D

 32 34  0  0  0  0            999 V2000
   -2.3221    2.8601    0.0000 C   0  0
   -1.7518    3.2249    0.0000 S   0  0
   -1.3856    2.6554    0.0000 O   0  0
   -2.1181    3.7981    0.0000 O   0  0
   -1.1798    3.5943    0.0000 N   0  0
   -4.6664    2.1654    0.0000 C   0  0
   -4.0780    1.8289    0.0000 C   0  0
   -3.4916    2.1716    0.0000 C   0  0
   -2.9025    1.8339    0.0000 C   0  0
   -2.3165    2.1801    0.0000 C   0  0
   -2.9155    3.1922    0.0000 C   0  0
   -3.4985    2.8478    0.0000 C   0  0
   -0.5744    3.2853    0.0000 C   0  0
   -0.4737    2.6122    0.0000 S   0  0
    0.1992    2.5070    0.0000 C   0  0
    0.5082    3.1123    0.0000 N   0  0
    0.0256    3.5924    0.0000 N   0  0
    0.5060    1.9005    0.0000 C   0  0
    0.1348    1.3301    0.0000 C   0  0
    1.1840    1.8644    0.0000 C   0  0
   -5.8269    0.1218    0.0000 C   0  0
   -5.2397   -0.2190    0.0000 C   0  0
   -5.2468    1.1394    0.0000 C   0  0
   -5.8313    0.7976    0.0000 N   0  0
   -4.6549    0.8048    0.0000 C   0  0
   -4.6543    0.1205    0.0000 C   0  0
   -5.2529    1.8185    0.0000 N   0  0
   -5.2399   -0.8981    0.0000 C   0  0
   -5.2385   -1.5181    0.0000 F   0  0
   -5.7885   -1.3484    0.0000 F   0  0
   -4.6883   -1.3487    0.0000 F   0  0
   -4.0684    1.1473    0.0000 Cl  0  0
  9 10  1  0
 10  1  2  0
  1 11  1  0
 11 12  2  0
 12  8  1  0
  5 13  1  0
 13 14  1  0
 14 15  1  0
 15 16  2  0
 16 17  1  0
 17 13  2  0
 15 18  1  0
 18 19  1  0
 18 20  1  0
  1  2  1  0
  2  3  2  0
  2  4  2  0
  2  5  1  0
 21 22  2  0
 22 26  1  0
 25 23  1  0
 23 24  2  0
 24 21  1  0
 25 26  2  0
 23 27  1  0
 27  6  1  0
  6  7  1  0
  7  8  1  0
  8  9  2  0
 22 28  1  0
 28 29  1  0
 28 30  1  0
 28 31  1  0
 25 32  1  0
M  END
>  <ID_NEW>
CPDPP3046

>  <pEC50>
8.755290309098505

$$$$

  SciTegic12180814002D

 37 41  0  0  0  0            999 V2000
   12.0834   -4.8598    0.0000 C   0  0
   11.9605   -5.6707    0.0000 N   0  0
   12.6999   -6.0366    0.0000 C   0  0
   13.2734   -5.4624    0.0000 O   0  0
   12.8983   -4.7252    0.0000 N   0  0
   12.8412   -6.8516    0.0000 O   0  0
   11.4756   -4.3066    0.0000 C   0  0
   12.0315   -3.6966    0.0000 C   0  0
   11.7757   -2.9117    0.0000 C   0  0
   10.9769   -2.7366    0.0000 C   0  0
   10.4249   -3.3454    0.0000 C   0  0
   10.6730   -4.1282    0.0000 C   0  0
   10.7250   -1.9499    0.0000 S   0  0
    9.9344   -2.2036    0.0000 O   0  0
   11.5116   -1.6953    0.0000 O   0  0
   10.1207   -4.7379    0.0000 Br  0  0
    7.1282    1.0489    0.0000 C   0  0
    6.2967    1.0487    0.0000 C   0  0
    5.8867    0.3354    0.0000 C   0  0
    6.2987   -0.3866    0.0000 C   0  0
    7.1250   -0.3866    0.0000 C   0  0
    7.5396    0.3315    0.0000 C   0  0
    5.0618    0.3426    0.0000 C   0  0
    4.2342    0.3502    0.0000 F   0  0
    5.0520   -0.4828    0.0000 F   0  0
    5.0696    1.1698    0.0000 F   0  0
   10.4681   -1.1610    0.0000 N   0  0
    8.2569   -0.0792    0.0000 C   0  0
    8.2557   -0.9065    0.0000 C   0  0
    8.9747   -1.3193    0.0000 C   0  0
    8.9729    0.3295    0.0000 C   0  0
    9.6841   -0.0797    0.0000 C   0  0
    9.6848   -0.9061    0.0000 C   0  0
   10.9500   -0.4979    0.0000 C   0  0
   10.4686    0.1720    0.0000 C   0  0
   10.9479    0.8430    0.0000 C   0  0
   10.1768   -0.5990    0.0000 C   0  0
  5  1  2  0
  7  1  1  0
  3  6  2  0
  1  2  1  0
  2  3  1  0
  3  4  1  0
  4  5  1  0
 13 14  2  0
  9 10  1  0
 13 15  2  0
 12  7  2  0
 12 16  1  0
  7  8  1  0
  8  9  2  0
 10 11  2  0
 10 13  1  0
 11 12  1  0
 21 22  2  0
 22 17  1  0
 17 18  2  0
 19 20  2  0
 19 23  1  0
 23 24  1  0
 20 21  1  0
 23 25  1  0
 18 19  1  0
 29 30  1  0
 30 33  2  0
 28 29  2  0
 32 31  2  0
 33 27  1  0
 27 34  1  0
 34 35  1  0
 35 32  1  0
 31 28  1  0
 32 33  1  0
 28 22  1  0
 35 36  1  0
 23 26  1  0
 35 37  1  0
 27 13  1  0
M  END
>  <ID_NEW>
CPDPP3047

>  <pEC50>
8.746283005452494

$$$$

  SciTegic12180813082D

 38 41  0  0  0  0            999 V2000
   -1.5905    1.6211    0.0000 C   0  0
   -2.4338    1.6220    0.0000 C   0  0
   -2.8599    2.3124    0.0000 C   0  0
   -3.7191    2.3089    0.0000 C   0  0
   -4.1354    1.6215    0.0000 C   0  0
   -3.7189    0.9281    0.0000 C   0  0
   -2.8622    0.9267    0.0000 C   0  0
   -1.1626    0.9325    0.0000 O   0  0
   -2.4276    3.0029    0.0000 O   0  0
   -2.8584    3.7006    0.0000 C   0  0
   -3.7121    3.7036    0.0000 C   0  0
   -4.9795    1.6218    0.0000 C   0  0
   -5.8292    1.6209    0.0000 F   0  0
   -4.9825    2.4154    0.0000 F   0  0
   -4.9794    0.8245    0.0000 F   0  0
    2.4561    2.6848    0.0000 C   0  0
    3.1973    3.1019    0.0000 S   0  0
    2.7719    3.7963    0.0000 O   0  0
    3.9316    3.5027    0.0000 N   0  0
    3.6221    2.4017    0.0000 O   0  0
   -1.1649    2.3118    0.0000 N   0  0
    2.4567    1.9075    0.0000 C   0  0
    1.7216    3.0996    0.0000 C   0  0
    1.7230    1.5051    0.0000 C   0  0
    0.9796    1.9077    0.0000 C   0  0
    0.9816    2.6847    0.0000 C   0  0
    0.1793    2.9351    0.0000 C   0  0
   -0.3108    2.3056    0.0000 C   0  0
    0.1802    1.6530    0.0000 C   0  0
    4.6743    3.1143    0.0000 C   0  0
    5.4944    3.3614    0.0000 S   0  0
    5.9806    2.7333    0.0000 C   0  0
    5.4977    2.0843    0.0000 N   0  0
    4.6816    2.3321    0.0000 N   0  0
    6.8332    2.7599    0.0000 C   0  0
    7.2456    3.4626    0.0000 C   0  0
    7.2725    2.0718    0.0000 C   0  0
   -0.0757    3.7373    0.0000 C   0  0
 24 22  1  0
 25 26  1  0
 19 30  1  0
 30 31  1  0
 31 32  1  0
 32 33  2  0
 33 34  1  0
 34 30  2  0
 32 35  1  0
 35 36  1  0
 35 37  1  0
  1  2  1  0
  2  3  2  0
  3  4  1  0
  4  5  2  0
  5  6  1  0
  6  7  2  0
  7  2  1  0
  1  8  2  0
  3  9  1  0
  9 10  1  0
 10 11  1  0
  5 12  1  0
 12 13  1  0
 12 14  1  0
 12 15  1  0
 21  1  1  0
 26 27  1  0
 27 28  1  0
 28 29  1  0
 29 25  1  0
 28 21  1  0
 17 20  2  0
 16 17  1  0
 17 18  2  0
 17 19  1  0
 22 16  2  0
 16 23  1  0
 27 38  1  0
 23 26  2  0
 25 24  2  0
M  END
>  <ID_NEW>
CPDPP3048

>  <pEC50>
8.739261482676461

$$$$

  SciTegic12180812582D

 40 43  0  0  0  0            999 V2000
    0.9510    0.2429    0.0000 C   0  0
    0.1966    0.0915    0.0000 C   0  0
   -0.0476   -0.6374    0.0000 C   0  0
    0.4584   -1.2149    0.0000 C   0  0
    1.2129   -1.0634    0.0000 C   0  0
    1.4612   -0.3345    0.0000 C   0  0
   -0.7979   -0.7846    0.0000 O   0  0
    1.7189   -1.6408    0.0000 Cl  0  0
    2.2114   -0.1872    0.0000 C   0  0
   -4.4061   -1.3581    0.0000 C   0  0
   -4.9256   -1.9225    0.0000 C   0  0
   -4.6959   -2.6548    0.0000 C   0  0
   -3.9465   -2.8271    0.0000 C   0  0
   -3.4269   -2.2586    0.0000 C   0  0
   -3.6567   -1.5262    0.0000 C   0  0
   -5.2198   -3.2192    0.0000 C   0  0
   -3.1369   -0.9661    0.0000 C   0  0
   -2.3725   -1.0544    0.0000 S   0  0
   -2.0501   -0.3545    0.0000 C   0  0
   -2.6148    0.1633    0.0000 C   0  0
   -3.2855   -0.2117    0.0000 N   0  0
   -2.5241    0.9280    0.0000 C   0  0
   -1.3040   -0.2072    0.0000 C   0  0
   -4.8123   -3.8667    0.0000 F   0  0
   -5.8302   -3.6859    0.0000 F   0  0
   -5.7359   -2.6509    0.0000 F   0  0
   -4.4625    1.5412    0.0000 C   0  0
   -3.8480    1.0825    0.0000 C   0  0
   -3.1385    1.3874    0.0000 N   0  0
   -3.0477    2.1477    0.0000 C   0  0
   -3.6705    2.6048    0.0000 C   0  0
    2.7690   -0.7056    0.0000 N   0  0
    3.4369   -0.3337    0.0000 O   0  0
    3.2896    0.4165    0.0000 C   0  0
    2.5307    0.5081    0.0000 N   0  0
    3.8100    0.9766    0.0000 O   0  0
   -3.5860    3.3727    0.0000 O   0  0
   -4.2088    3.8298    0.0000 C   0  0
   -5.1670    1.2384    0.0000 O   0  0
   -5.7815    1.6971    0.0000 C   0  0
 18 19  1  0
 19 20  2  0
 20 21  1  0
 21 17  2  0
 15 10  1  0
 20 22  1  0
 10 11  2  0
  6  1  1  0
  3  7  1  0
  5  8  1  0
  6  9  1  0
  1  2  2  0
  2  3  1  0
  3  4  2  0
 27 28  1  0
 28 29  1  0
 29 30  1  0
 30 31  1  0
 22 29  1  0
  4  5  1  0
  5  6  2  0
 19 23  1  0
 12 16  1  0
 23  7  1  0
 12 13  2  0
 15 17  1  0
 16 24  1  0
 17 18  1  0
 16 25  1  0
 16 26  1  0
 13 14  1  0
 11 12  1  0
 14 15  2  0
  9 32  2  0
 32 33  1  0
 33 34  1  0
 34 35  1  0
 35  9  1  0
 34 36  2  0
 31 37  1  0
 37 38  1  0
 27 39  1  0
 39 40  1  0
M  END
>  <ID_NEW>
CPDPP3049

>  <pEC50>
8.725048539721827

$$$$

  -MTS-   10172316532D 0   0.00000     0.00000     0

 34 37  0  0  1  0  0  0  0  0999 V2000
   -1.1710   -1.4590    0.0000 C   0  0  0  0  0  0  0  0  0  0  0  0
   -0.5240   -1.0860    0.0000 C   0  0  1  0  0  0  0  0  0  0  0  0
   -0.5150   -0.3410    0.0000 N   0  0  0  0  0  0  0  0  0  0  0  0
   -1.1700    0.0410    0.0000 C   0  0  1  0  0  0  0  0  0  0  0  0
   -1.8130   -0.3320    0.0000 C   0  0  0  0  0  0  0  0  0  0  0  0
   -1.8200   -1.0870    0.0000 N   0  0  0  0  0  0  0  0  0  0  0  0
    0.1220   -1.4600    0.0000 C   0  0  0  0  0  0  0  0  0  0  0  0
   -1.1540    0.7830    0.0000 C   0  0  0  0  0  0  0  0  0  0  0  0
   -5.0540   -2.2390    0.0000 C   0  0  0  0  0  0  0  0  0  0  0  0
   -5.0610   -1.4890    0.0000 F   0  0  0  0  0  0  0  0  0  0  0  0
   -5.7080   -2.6110    0.0000 F   0  0  0  0  0  0  0  0  0  0  0  0
   -5.7070   -1.8520    0.0000 F   0  0  0  0  0  0  0  0  0  0  0  0
   -2.4540   -1.4720    0.0000 C   0  0  0  0  0  0  0  0  0  0  0  0
   -3.1050   -1.0870    0.0000 C   0  0  0  0  0  0  0  0  0  0  0  0
   -3.7550   -1.4720    0.0000 C   0  0  0  0  0  0  0  0  0  0  0  0
   -3.7570   -2.2230    0.0000 C   0  0  0  0  0  0  0  0  0  0  0  0
   -3.0900   -2.5870    0.0000 C   0  0  0  0  0  0  0  0  0  0  0  0
   -2.4430   -2.2240    0.0000 C   0  0  0  0  0  0  0  0  0  0  0  0
   -4.4070   -2.6020    0.0000 O   0  0  0  0  0  0  0  0  0  0  0  0
    0.1150    0.0570    0.0000 S   0  0  0  0  0  0  0  0  0  0  0  0
    1.4110    0.0600    0.0000 C   0  0  0  0  0  0  0  0  0  0  0  0
    2.0650    0.4340    0.0000 C   0  0  0  0  0  0  0  0  0  0  0  0
    2.0630    1.1840    0.0000 C   0  0  0  0  0  0  0  0  0  0  0  0
    0.7590    0.4210    0.0000 C   0  0  0  0  0  0  0  0  0  0  0  0
    0.7610    1.1700    0.0000 C   0  0  0  0  0  0  0  0  0  0  0  0
    1.4090    1.5510    0.0000 C   0  0  0  0  0  0  0  0  0  0  0  0
    1.2480    2.2930    0.0000 C   0  0  0  0  0  0  0  0  0  0  0  0
    0.4980    2.3660    0.0000 C   0  0  1  0  0  0  0  0  0  0  0  0
    0.1940    1.6780    0.0000 C   0  0  0  0  0  0  0  0  0  0  0  0
    0.1240    3.0120    0.0000 C   0  0  0  0  0  0  0  0  0  0  0  0
    0.4970    3.6720    0.0000 O   0  0  0  0  0  0  0  0  0  0  0  0
   -0.6260    3.0090    0.0000 O   0  0  0  0  0  0  0  0  0  0  0  0
    0.5120   -0.5800    0.0000 O   0  0  0  0  0  0  0  0  0  0  0  0
   -0.2850    0.6760    0.0000 O   0  0  0  0  0  0  0  0  0  0  0  0
  4  5  1  0  0  0  0
  5  6  1  0  0  0  0
  2  7  1  1  0  0  0
  4  8  1  1  0  0  0
  1  2  1  0  0  0  0
  1  6  1  0  0  0  0
  2  3  1  0  0  0  0
  3  4  1  0  0  0  0
 13 14  2  0  0  0  0
 14 15  1  0  0  0  0
 15 16  2  0  0  0  0
 16 17  1  0  0  0  0
 17 18  2  0  0  0  0
 18 13  1  0  0  0  0
 16 19  1  0  0  0  0
 19  9  1  0  0  0  0
  9 10  1  0  0  0  0
  9 11  1  0  0  0  0
  9 12  1  0  0  0  0
  6 13  1  0  0  0  0
 25 24  2  0  0  0  0
 24 21  1  0  0  0  0
 25 26  1  0  0  0  0
 26 27  1  0  0  0  0
 27 28  1  0  0  0  0
 28 29  1  0  0  0  0
 29 25  1  0  0  0  0
 28 30  1  1  0  0  0
 30 31  1  0  0  0  0
 30 32  2  0  0  0  0
 21 22  2  0  0  0  0
 22 23  1  0  0  0  0
 23 26  2  0  0  0  0
 24 20  1  0  0  0  0
 20 33  2  0  0  0  0
 20  3  1  0  0  0  0
 20 34  2  0  0  0  0
M  END
>  <ID_NEW>
CPDPP3050

>  <pEC50>
8.704648067886554

$$$$

  -MTS-   10172316532D 0   0.00000     0.00000     0

 38 40  0  0  1  0  0  0  0  0999 V2000
    5.2980    0.7350    0.0000 N   0  0  0  0  0  0  0  0  0  0  0  0
    6.0190    0.9670    0.0000 N   0  0  0  0  0  0  0  0  0  0  0  0
    6.0180    1.7220    0.0000 C   0  0  0  0  0  0  0  0  0  0  0  0
    5.2980    1.9550    0.0000 S   0  0  0  0  0  0  0  0  0  0  0  0
    4.8680    1.3360    0.0000 C   0  0  0  0  0  0  0  0  0  0  0  0
    4.1130    1.3350    0.0000 N   0  0  0  0  0  0  0  0  0  0  0  0
    6.6310    2.1590    0.0000 C   0  0  0  0  0  0  0  0  0  0  0  0
    7.3230    1.8580    0.0000 C   0  0  0  0  0  0  0  0  0  0  0  0
    6.5570    2.9090    0.0000 C   0  0  0  0  0  0  0  0  0  0  0  0
    1.1810    1.9630    0.0000 C   0  0  0  0  0  0  0  0  0  0  0  0
    1.4130    1.2440    0.0000 C   0  0  0  0  0  0  0  0  0  0  0  0
    2.1500    1.0910    0.0000 C   0  0  0  0  0  0  0  0  0  0  0  0
    2.6480    1.6520    0.0000 C   0  0  0  0  0  0  0  0  0  0  0  0
    2.4030    2.3660    0.0000 C   0  0  0  0  0  0  0  0  0  0  0  0
    1.6830    2.5150    0.0000 C   0  0  0  0  0  0  0  0  0  0  0  0
    0.4400    2.1080    0.0000 C   0  0  1  0  0  0  0  0  0  0  0  0
    0.2080    2.8290    0.0000 C   0  0  0  0  0  0  0  0  0  0  0  0
   -0.0600    1.5470    0.0000 C   0  0  0  0  0  0  0  0  0  0  0  0
    0.7000    3.3940    0.0000 C   0  0  0  0  0  0  0  0  0  0  0  0
   -0.7920    1.7170    0.0000 N   0  0  0  0  0  0  0  0  0  0  0  0
    3.3930    1.4960    0.0000 S   0  0  0  0  0  0  0  0  0  0  0  0
    3.7160    2.1620    0.0000 O   0  0  0  0  0  0  0  0  0  0  0  0
    3.2210    0.7650    0.0000 O   0  0  0  0  0  0  0  0  0  0  0  0
   -1.3010    1.1520    0.0000 C   0  0  0  0  0  0  0  0  0  0  0  0
   -2.0330    1.3050    0.0000 C   0  0  0  0  0  0  0  0  0  0  0  0
   -1.0690    0.4390    0.0000 O   0  0  0  0  0  0  0  0  0  0  0  0
   -2.2700    2.0200    0.0000 C   0  0  0  0  0  0  0  0  0  0  0  0
   -2.9940    2.1610    0.0000 C   0  0  0  0  0  0  0  0  0  0  0  0
   -3.4910    1.6120    0.0000 C   0  0  0  0  0  0  0  0  0  0  0  0
   -3.2670    0.8960    0.0000 C   0  0  0  0  0  0  0  0  0  0  0  0
   -2.5320    0.7430    0.0000 C   0  0  0  0  0  0  0  0  0  0  0  0
   -1.7610    2.5760    0.0000 O   0  0  0  0  0  0  0  0  0  0  0  0
   -1.7710    3.3330    0.0000 C   0  0  0  0  0  0  0  0  0  0  0  0
   -1.1180    3.7050    0.0000 C   0  0  0  0  0  0  0  0  0  0  0  0
   -4.2440    1.7600    0.0000 C   0  0  0  0  0  0  0  0  0  0  0  0
   -4.4780    2.4850    0.0000 F   0  0  0  0  0  0  0  0  0  0  0  0
   -4.7440    1.2030    0.0000 F   0  0  0  0  0  0  0  0  0  0  0  0
   -4.9620    1.9670    0.0000 F   0  0  0  0  0  0  0  0  0  0  0  0
 17 19  1  0  0  0  0
 11 12  1  0  0  0  0
 14 15  2  0  0  0  0
 13 21  1  0  0  0  0
 18 20  1  0  0  0  0
 21 22  2  0  0  0  0
 15 10  1  0  0  0  0
 21 23  2  0  0  0  0
 10 11  2  0  0  0  0
 21  6  1  0  0  0  0
 20 24  1  0  0  0  0
  1  2  1  0  0  0  0
 24 25  1  0  0  0  0
  2  3  2  0  0  0  0
 24 26  2  0  0  0  0
  3  4  1  0  0  0  0
 25 27  2  0  0  0  0
  4  5  1  0  0  0  0
 27 28  1  0  0  0  0
  5  1  2  0  0  0  0
 28 29  2  0  0  0  0
  5  6  1  0  0  0  0
 29 30  1  0  0  0  0
  3  7  1  0  0  0  0
 30 31  2  0  0  0  0
 31 25  1  0  0  0  0
  7  8  1  0  0  0  0
 27 32  1  0  0  0  0
  7  9  1  0  0  0  0
 32 33  1  0  0  0  0
 10 16  1  0  0  0  0
 33 34  1  0  0  0  0
 12 13  2  0  0  0  0
 29 35  1  0  0  0  0
 16 17  1  6  0  0  0
 35 36  1  0  0  0  0
 16 18  1  0  0  0  0
 35 37  1  0  0  0  0
 13 14  1  0  0  0  0
 35 38  1  0  0  0  0
M  END
>  <ID_NEW>
CPDPP3051

>  <pEC50>
8.674775776204623

$$$$

  -MTS-   10172316532D 0   0.00000     0.00000     0

 33 36  0  0  1  0  0  0  0  0999 V2000
   -3.5580    2.2940    0.0000 C   0  0  0  0  0  0  0  0  0  0  0  0
   -3.9880    2.2400    0.0000 C   0  0  0  0  0  0  0  0  0  0  0  0
   -3.3190    2.6710    0.0000 S   0  0  0  0  0  0  0  0  0  0  0  0
   -3.2710    1.9630    0.0000 N   0  0  0  0  0  0  0  0  0  0  0  0
   -4.1580    1.8390    0.0000 C   0  0  0  0  0  0  0  0  0  0  0  0
   -4.2430    2.5890    0.0000 C   0  0  0  0  0  0  0  0  0  0  0  0
   -2.8980    2.5700    0.0000 C   0  0  0  0  0  0  0  0  0  0  0  0
   -2.8610    2.1140    0.0000 C   0  0  0  0  0  0  0  0  0  0  0  0
   -4.5850    1.7810    0.0000 C   0  0  0  0  0  0  0  0  0  0  0  0
   -4.6950    2.5270    0.0000 C   0  0  0  0  0  0  0  0  0  0  0  0
   -2.5620    2.8570    0.0000 C   0  0  1  0  0  0  0  0  0  0  0  0
   -2.4880    1.8740    0.0000 C   0  0  0  0  0  0  0  0  0  0  0  0
   -4.8520    2.1330    0.0000 C   0  0  0  0  0  0  0  0  0  0  0  0
   -2.1490    2.7100    0.0000 O   0  0  0  0  0  0  0  0  0  0  0  0
   -5.2760    2.0730    0.0000 C   0  0  0  0  0  0  0  0  0  0  0  0
   -5.7080    2.0410    0.0000 F   0  0  0  0  0  0  0  0  0  0  0  0
   -5.2420    1.6430    0.0000 F   0  0  0  0  0  0  0  0  0  0  0  0
   -5.3170    2.5050    0.0000 F   0  0  0  0  0  0  0  0  0  0  0  0
   -1.7170    2.7120    0.0000 C   0  0  0  0  0  0  0  0  0  0  0  0
   -1.4940    2.3360    0.0000 C   0  0  0  0  0  0  0  0  0  0  0  0
   -1.0660    2.3380    0.0000 C   0  0  0  0  0  0  0  0  0  0  0  0
   -0.8520    2.7100    0.0000 C   0  0  0  0  0  0  0  0  0  0  0  0
   -1.0650    3.0930    0.0000 C   0  0  0  0  0  0  0  0  0  0  0  0
   -1.4960    3.0920    0.0000 C   0  0  0  0  0  0  0  0  0  0  0  0
   -0.8520    1.9660    0.0000 F   0  0  0  0  0  0  0  0  0  0  0  0
   -0.4060    2.7090    0.0000 C   0  0  0  0  0  0  0  0  0  0  0  0
   -0.1950    2.3410    0.0000 N   0  0  0  0  0  0  0  0  0  0  0  0
   -0.1980    3.0980    0.0000 N   0  0  0  0  0  0  0  0  0  0  0  0
    0.3220    2.9800    0.0000 O   0  0  0  0  0  0  0  0  0  0  0  0
    0.3250    2.4720    0.0000 C   0  0  0  0  0  0  0  0  0  0  0  0
    0.6030    2.2120    0.0000 O   0  0  0  0  0  0  0  0  0  0  0  0
   -2.6400    3.2930    0.0000 C   0  0  0  0  0  0  0  0  0  0  0  0
   -2.3070    3.5800    0.0000 C   0  0  0  0  0  0  0  0  0  0  0  0
  1  2  1  0  0  0  0
  1  3  1  0  0  0  0
  1  4  2  0  0  0  0
  2  5  1  0  0  0  0
  2  6  2  0  0  0  0
  3  7  1  0  0  0  0
  4  8  1  0  0  0  0
  5  9  2  0  0  0  0
  6 10  1  0  0  0  0
  7 11  1  0  0  0  0
  8 12  1  0  0  0  0
  9 13  1  0  0  0  0
 11 14  1  0  0  0  0
 13 15  1  0  0  0  0
 15 16  1  0  0  0  0
 15 17  1  0  0  0  0
 15 18  1  0  0  0  0
  7  8  2  0  0  0  0
 10 13  2  0  0  0  0
 14 19  1  0  0  0  0
 19 20  2  0  0  0  0
 20 21  1  0  0  0  0
 21 22  2  0  0  0  0
 22 23  1  0  0  0  0
 23 24  2  0  0  0  0
 24 19  1  0  0  0  0
 21 25  1  0  0  0  0
 22 26  1  0  0  0  0
 26 27  1  0  0  0  0
 26 28  2  0  0  0  0
 28 29  1  0  0  0  0
 27 30  1  0  0  0  0
 30 31  2  0  0  0  0
 29 30  1  0  0  0  0
 11 32  1  6  0  0  0
 32 33  1  0  0  0  0
M  END
>  <ID_NEW>
CPDPP3052

>  <pEC50>
8.656524936757794

$$$$

  -MTS-   10172316532D 0   0.00000     0.00000     0

 40 44  0  0  1  0  0  0  0  0999 V2000
    1.8250   -5.6540    0.0000 N   0  0  0  0  0  0  0  0  0  0  0  0
    1.2590   -5.0600    0.0000 C   0  0  0  0  0  0  0  0  0  0  0  0
    1.4890   -4.2640    0.0000 C   0  0  0  0  0  0  0  0  0  0  0  0
    2.2880   -4.0690    0.0000 C   0  0  0  0  0  0  0  0  0  0  0  0
    2.8600   -4.6710    0.0000 C   0  0  0  0  0  0  0  0  0  0  0  0
    2.6280   -5.4600    0.0000 C   0  0  0  0  0  0  0  0  0  0  0  0
    3.6610   -4.4710    0.0000 C   0  0  0  0  0  0  0  0  0  0  0  0
    0.4560   -5.2530    0.0000 C   0  0  0  0  0  0  0  0  0  0  0  0
    0.0570   -4.5310    0.0000 F   0  0  0  0  0  0  0  0  0  0  0  0
   -0.2970   -5.5850    0.0000 F   0  0  0  0  0  0  0  0  0  0  0  0
    0.7210   -6.0350    0.0000 F   0  0  0  0  0  0  0  0  0  0  0  0
    3.9740   -3.7100    0.0000 S   0  0  0  0  0  0  0  0  0  0  0  0
    4.7990   -3.7720    0.0000 C   0  0  0  0  0  0  0  0  0  0  0  0
    4.9940   -4.5710    0.0000 C   0  0  0  0  0  0  0  0  0  0  0  0
    4.2910   -5.0040    0.0000 N   0  0  0  0  0  0  0  0  0  0  0  0
    5.7560   -4.8840    0.0000 C   0  0  0  0  0  0  0  0  0  0  0  0
    5.3280   -3.1400    0.0000 C   0  0  2  0  0  0  0  0  0  0  0  0
    6.1430   -3.2880    0.0000 O   0  0  0  0  0  0  0  0  0  0  0  0
    5.0520   -2.3650    0.0000 C   0  0  0  0  0  0  0  0  0  0  0  0
    4.6440   -1.6480    0.0000 F   0  0  0  0  0  0  0  0  0  0  0  0
    5.7310   -1.8940    0.0000 C   0  0  0  0  0  0  0  0  0  0  0  0
    5.6640   -1.0710    0.0000 C   0  0  0  0  0  0  0  0  0  0  0  0
    4.3020   -2.7070    0.0000 F   0  0  0  0  0  0  0  0  0  0  0  0
    8.3240   -5.1350    0.0000 C   0  0  0  0  0  0  0  0  0  0  0  0
    7.5080   -4.9870    0.0000 C   0  0  0  0  0  0  0  0  0  0  0  0
    7.2330   -4.2120    0.0000 C   0  0  0  0  0  0  0  0  0  0  0  0
    8.8560   -4.5050    0.0000 C   0  0  0  0  0  0  0  0  0  0  0  0
    8.5770   -3.7280    0.0000 C   0  0  0  0  0  0  0  0  0  0  0  0
    7.7660   -3.5820    0.0000 C   0  0  0  0  0  0  0  0  0  0  0  0
    7.4870   -2.8050    0.0000 N   0  0  0  0  0  0  0  0  0  0  0  0
    8.0190   -2.1750    0.0000 C   0  0  0  0  0  0  0  0  0  0  0  0
    8.8350   -2.3240    0.0000 C   0  0  0  0  0  0  0  0  0  0  0  0
    9.1100   -3.0980    0.0000 C   0  0  0  0  0  0  0  0  0  0  0  0
    9.6680   -4.6520    0.0000 C   0  0  0  0  0  0  0  0  0  0  0  0
    6.4220   -4.0650    0.0000 C   0  0  0  0  0  0  0  0  0  0  0  0
   10.0270   -5.3930    0.0000 N   0  0  0  0  0  0  0  0  0  0  0  0
   10.8440   -5.2810    0.0000 O   0  0  0  0  0  0  0  0  0  0  0  0
   10.9910   -4.4700    0.0000 C   0  0  0  0  0  0  0  0  0  0  0  0
   10.2650   -4.0800    0.0000 N   0  0  0  0  0  0  0  0  0  0  0  0
   11.7830   -4.2500    0.0000 O   0  0  0  0  0  0  0  0  0  0  0  0
 14 16  1  0  0  0  0
 13 17  1  0  0  0  0
 17 18  1  0  0  0  0
 17 19  1  1  0  0  0
 19 20  1  0  0  0  0
 19 21  1  0  0  0  0
 21 22  1  0  0  0  0
 19 23  1  0  0  0  0
  3  4  2  0  0  0  0
  5  7  1  0  0  0  0
  4  5  1  0  0  0  0
  2  3  1  0  0  0  0
  5  6  2  0  0  0  0
  6  1  1  0  0  0  0
  1  2  2  0  0  0  0
  2  8  1  0  0  0  0
  8  9  1  0  0  0  0
  8 10  1  0  0  0  0
  8 11  1  0  0  0  0
  7 12  1  0  0  0  0
 26 29  2  0  0  0  0
 29 30  1  0  0  0  0
 24 25  2  0  0  0  0
 30 31  2  0  0  0  0
 28 27  2  0  0  0  0
 31 32  1  0  0  0  0
 27 24  1  0  0  0  0
 32 33  2  0  0  0  0
 33 28  1  0  0  0  0
 27 34  1  0  0  0  0
 25 26  1  0  0  0  0
 28 29  1  0  0  0  0
 26 35  1  0  0  0  0
 18 35  1  0  0  0  0
 34 36  2  0  0  0  0
 12 13  1  0  0  0  0
 13 14  2  0  0  0  0
 14 15  1  0  0  0  0
 36 37  1  0  0  0  0
 37 38  1  0  0  0  0
 38 39  1  0  0  0  0
 39 34  1  0  0  0  0
 15  7  2  0  0  0  0
 38 40  2  0  0  0  0
M  END
>  <ID_NEW>
CPDPP3053

>  <pEC50>
8.647781960694475

$$$$

  SciTegic12180813002D

 37 40  0  0  0  0            999 V2000
    1.0272   -0.2521    0.0000 C   0  0
    1.3607   -1.0055    0.0000 C   0  0
    2.1807   -1.0889    0.0000 C   0  0
    2.6639   -0.4192    0.0000 C   0  0
    2.3213    0.3360    0.0000 C   0  0
    1.5023    0.4158    0.0000 C   0  0
    3.4848   -0.5012    0.0000 C   0  0
    2.8013    1.0070    0.0000 Cl  0  0
    0.2064   -0.1691    0.0000 O   0  0
   -4.3972   -0.0375    0.0000 C   0  0
   -4.3984   -0.8649    0.0000 C   0  0
   -3.6836   -1.2777    0.0000 C   0  0
   -2.9671   -0.8644    0.0000 C   0  0
   -2.9700   -0.0339    0.0000 C   0  0
   -3.6854    0.3753    0.0000 C   0  0
   -2.2571    0.3813    0.0000 C   0  0
   -5.1132   -1.2768    0.0000 C   0  0
   -5.8273   -0.8637    0.0000 F   0  0
   -5.1138   -2.1018    0.0000 F   0  0
   -5.8333   -1.6833    0.0000 F   0  0
   -1.5025    0.0512    0.0000 O   0  0
   -0.9528    0.6664    0.0000 C   0  0
   -1.3681    1.3793    0.0000 C   0  0
   -2.1743    1.2046    0.0000 N   0  0
   -1.0354    2.1343    0.0000 C   0  0
   -0.1320    0.5832    0.0000 C   0  0
   -0.2162    2.2268    0.0000 O   0  0
    0.1308    2.9753    0.0000 C   0  0
    0.9525    3.0490    0.0000 C   0  0
    1.4272    2.3742    0.0000 F   0  0
    1.2995    3.7975    0.0000 F   0  0
    0.8111    2.2362    0.0000 F   0  0
    3.9013   -1.2114    0.0000 N   0  0
    4.7073   -1.0357    0.0000 O   0  0
    4.7893   -0.2148    0.0000 C   0  0
    4.0339    0.1168    0.0000 N   0  0
    5.5016    0.2015    0.0000 O   0  0
  1  2  2  0
  2  3  1  0
  3  4  2  0
  4  5  1  0
  5  6  2  0
  6  1  1  0
  4  7  1  0
  5  8  1  0
  1  9  1  0
 14 15  2  0
 17 20  1  0
 16 21  1  0
 15 10  1  0
 10 11  2  0
 12 13  2  0
 13 14  1  0
 21 22  1  0
 22 23  2  0
 23 24  1  0
 24 16  2  0
 23 25  1  0
 11 17  1  0
 22 26  1  0
 11 12  1  0
 26  9  1  0
 17 18  1  0
 14 16  1  0
 17 19  1  0
 25 27  1  0
 27 28  1  0
 28 29  1  0
 29 30  1  0
 29 31  1  0
 29 32  1  0
  7 33  2  0
 33 34  1  0
 34 35  1  0
 35 36  1  0
 36  7  1  0
 35 37  2  0
M  END
>  <ID_NEW>
CPDPP3054

>  <pEC50>
8.639507099146657

$$$$

  SciTegic12180813512D

 35 39  0  0  0  0            999 V2000
   11.6461   -5.8842    0.0000 C   0  0
   11.3925   -6.6700    0.0000 N   0  0
   12.0664   -7.1508    0.0000 C   0  0
   12.7281   -6.6687    0.0000 O   0  0
   12.4744   -5.8851    0.0000 N   0  0
   12.0701   -7.9754    0.0000 O   0  0
   12.3637   -4.6446    0.0000 C   0  0
   12.3649   -3.8131    0.0000 C   0  0
   11.6459   -3.4003    0.0000 C   0  0
   10.9336   -3.8136    0.0000 C   0  0
   10.9365   -4.6441    0.0000 C   0  0
   11.6477   -5.0574    0.0000 C   0  0
   11.6461   -2.5753    0.0000 S   0  0
   10.8248   -2.5780    0.0000 O   0  0
   12.4748   -2.5780    0.0000 O   0  0
   11.6498   -1.7529    0.0000 N   0  0
    9.0729    0.6783    0.0000 C   0  0
    8.5457    1.3044    0.0000 C   0  0
    7.7292    1.1629    0.0000 C   0  0
    7.4470    0.3833    0.0000 C   0  0
    7.9753   -0.2463    0.0000 C   0  0
    8.7895   -0.1018    0.0000 C   0  0
    7.1988    1.8076    0.0000 C   0  0
    6.6678    2.4435    0.0000 F   0  0
    6.5618    1.2787    0.0000 F   0  0
    7.8349    2.3364    0.0000 F   0  0
    9.5068   -0.5166    0.0000 C   0  0
    9.5057   -1.3398    0.0000 C   0  0
   10.2247   -1.7526    0.0000 C   0  0
   10.2229   -0.1038    0.0000 C   0  0
   10.9341   -0.5129    0.0000 C   0  0
   10.9371   -1.3377    0.0000 C   0  0
   12.3641   -1.3397    0.0000 C   0  0
   12.3653   -0.5150    0.0000 C   0  0
   11.6480   -0.1035    0.0000 C   0  0
  1  2  1  0
  2  3  1  0
  3  4  1  0
  4  5  1  0
  5  1  2  0
  3  6  2  0
 10 11  1  0
 13 14  2  0
  8  9  1  0
 13 15  2  0
 11 12  2  0
 13 16  1  0
 12  7  1  0
  7  8  2  0
 12  1  1  0
  9 10  2  0
  9 13  1  0
 18 19  1  0
 21 22  2  0
 23 24  1  0
 22 17  1  0
 23 25  1  0
 17 18  2  0
 27 22  1  0
 23 26  1  0
 19 20  2  0
 19 23  1  0
 20 21  1  0
 28 29  1  0
 29 32  2  0
 27 28  2  0
 31 30  2  0
 30 27  1  0
 31 35  1  0
 32 16  1  0
 16 33  1  0
 33 34  1  0
 34 35  1  0
 31 32  1  0
M  END
>  <ID_NEW>
CPDPP3055

>  <pEC50>
8.633568016776696

$$$$

  SciTegic12180813582D

 37 41  0  0  0  0            999 V2000
    1.4523   -3.6164    0.0000 C   0  0
    0.9836   -4.3558    0.0000 N   0  0
    1.5402   -5.0352    0.0000 O   0  0
    2.3583   -4.7157    0.0000 C   0  0
    2.3072   -3.8390    0.0000 N   0  0
    3.0977   -5.1898    0.0000 O   0  0
    0.5229   -1.3194    0.0000 C   0  0
    0.0135   -1.9693    0.0000 C   0  0
    0.3237   -2.7357    0.0000 C   0  0
    1.1428   -2.8532    0.0000 C   0  0
    1.6502   -2.1944    0.0000 C   0  0
    1.3381   -1.4347    0.0000 C   0  0
    2.4716   -2.3068    0.0000 Cl  0  0
    0.2118   -0.5540    0.0000 S   0  0
    0.9771   -0.2424    0.0000 O   0  0
   -0.5487   -0.8664    0.0000 O   0  0
   -4.4030    2.5583    0.0000 C   0  0
   -4.4042    1.7310    0.0000 C   0  0
   -3.6893    1.3181    0.0000 C   0  0
   -2.9729    1.7314    0.0000 C   0  0
   -2.9758    2.5620    0.0000 C   0  0
   -3.6911    2.9711    0.0000 C   0  0
   -5.1176    2.9707    0.0000 C   0  0
   -5.1178    3.7959    0.0000 F   0  0
   -5.8319    2.5580    0.0000 F   0  0
   -4.5343    3.5624    0.0000 F   0  0
   -2.2598    1.3166    0.0000 C   0  0
   -2.2610    0.4892    0.0000 C   0  0
   -1.5420    0.0764    0.0000 C   0  0
   -1.5438    1.7252    0.0000 N   0  0
   -0.8288    1.3213    0.0000 C   0  0
   -0.8319    0.4896    0.0000 C   0  0
   -0.0419    0.2296    0.0000 N   0  0
    0.4495    0.9007    0.0000 C   0  0
   -0.0369    1.5753    0.0000 C   0  0
   -0.2542    2.3792    0.0000 C   0  0
    0.5458    2.1667    0.0000 C   0  0
  7  8  2  0
  8  9  1  0
  9 10  2  0
 10 11  1  0
 11 12  2  0
 12  7  1  0
 11 13  1  0
 10  1  1  0
  7 14  1  0
 14 15  2  0
 14 16  2  0
 17 18  2  0
 18 19  1  0
 19 20  2  0
 20 21  1  0
 21 22  2  0
 22 17  1  0
 17 23  1  0
 23 24  1  0
 23 25  1  0
 23 26  1  0
 29 32  2  0
 27 28  2  0
 31 30  2  0
 30 27  1  0
 28 29  1  0
 27 20  1  0
 31 32  1  0
 32 33  1  0
 33 34  1  0
 34 35  1  0
 35 31  1  0
 33 14  1  0
 35 36  1  0
 35 37  1  0
  1  2  2  0
  2  3  1  0
  3  4  1  0
  4  5  1  0
  5  1  1  0
  4  6  2  0
M  END
>  <ID_NEW>
CPDPP3056

>  <pEC50>
8.592238923194204

$$$$

  SciTegic12180813092D

 40 44  0  0  0  0            999 V2000
   -0.9662   -2.8838    0.0000 C   0  0
   -1.6338   -2.3923    0.0000 C   0  0
   -1.5381   -1.5705    0.0000 N   0  0
   -0.7790   -1.2391    0.0000 C   0  0
   -0.1166   -1.7335    0.0000 C   0  0
   -0.2082   -2.5564    0.0000 C   0  0
    0.6425   -1.4021    0.0000 C   0  0
   -2.3929   -2.7237    0.0000 C   0  0
   -2.9077   -2.0763    0.0000 F   0  0
   -3.0839   -3.1816    0.0000 F   0  0
   -1.9983   -3.4486    0.0000 F   0  0
    0.8227   -0.5942    0.0000 S   0  0
    1.6457   -0.5148    0.0000 C   0  0
    1.9771   -1.2739    0.0000 C   0  0
    1.3580   -1.8207    0.0000 N   0  0
    2.7849   -1.4541    0.0000 C   0  0
    2.0633    0.1967    0.0000 C   0  0
    2.8918    0.1891    0.0000 O   0  0
    1.6574    0.9186    0.0000 C   0  0
    1.1325    1.5552    0.0000 F   0  0
    2.2462    1.4986    0.0000 C   0  0
    2.0398    2.2978    0.0000 C   0  0
    0.9754    0.4493    0.0000 F   0  0
    4.1275   -0.5364    0.0000 C   0  0
    4.5462    0.1791    0.0000 C   0  0
    5.3748    0.1716    0.0000 C   0  0
    5.7807   -0.5503    0.0000 C   0  0
    6.6093   -0.5578    0.0000 C   0  0
    3.2989   -0.5287    0.0000 C   0  0
    4.5346   -1.2542    0.0000 C   0  0
    5.3620   -1.2658    0.0000 C   0  0
    5.7692   -1.9836    0.0000 C   0  0
    5.3505   -2.6990    0.0000 C   0  0
    4.5218   -2.6915    0.0000 C   0  0
    4.1119   -1.9684    0.0000 C   0  0
    7.0892   -1.2320    0.0000 N   0  0
    7.8795   -0.9831    0.0000 O   0  0
    7.8871   -0.1545    0.0000 C   0  0
    7.1014    0.1086    0.0000 N   0  0
    8.5958    0.2625    0.0000 O   0  0
 14 16  1  0
 13 17  1  0
 17 18  1  0
 17 19  1  0
 19 20  1  0
 19 21  1  0
 21 22  1  0
 19 23  1  0
  3  4  2  0
  5  7  1  0
  4  5  1  0
  2  3  1  0
  5  6  2  0
  6  1  1  0
  1  2  2  0
  2  8  1  0
  8  9  1  0
  8 10  1  0
  8 11  1  0
  7 12  1  0
 30 24  2  0
 24 25  1  0
 25 26  2  0
 26 27  1  0
 27 31  2  0
 27 28  1  0
 24 29  1  0
 30 31  1  0
 31 32  1  0
 32 33  2  0
 33 34  1  0
 34 35  2  0
 35 30  1  0
 18 29  1  0
 28 36  2  0
 12 13  1  0
 13 14  2  0
 14 15  1  0
 36 37  1  0
 37 38  1  0
 38 39  1  0
 39 28  1  0
 15  7  2  0
 38 40  2  0
M  END
>  <ID_NEW>
CPDPP3057

>  <pEC50>
8.592218611990676

$$$$

  SciTegic12180813082D

 38 42  0  0  0  0            999 V2000
    4.1465   -0.8714    0.0000 C   0  0
    4.1890   -1.7544    0.0000 N   0  0
    5.0451   -1.9881    0.0000 O   0  0
    5.5348   -1.2459    0.0000 C   0  0
    4.9787   -0.5562    0.0000 N   0  0
    6.4173   -1.2049    0.0000 O   0  0
   -1.9096    1.9543    0.0000 C   0  0
   -1.0944    1.5907    0.0000 S   0  0
   -0.5031    2.2519    0.0000 C   0  0
   -0.9557    3.0230    0.0000 C   0  0
   -1.8203    2.8358    0.0000 N   0  0
   -0.5981    3.8323    0.0000 C   0  0
    0.3803    2.1645    0.0000 C   0  0
    0.7436    1.3579    0.0000 O   0  0
    0.9002    2.8754    0.0000 C   0  0
    1.7835    2.7882    0.0000 F   0  0
    0.5368    3.6820    0.0000 F   0  0
    1.4593    2.1904    0.0000 F   0  0
   -2.6812    1.5090    0.0000 C   0  0
    3.2052    0.3390    0.0000 C   0  0
    2.3823    0.6800    0.0000 C   0  0
    1.6826    0.1385    0.0000 C   0  0
    1.8046   -0.7437    0.0000 C   0  0
    2.6279   -1.0822    0.0000 C   0  0
    3.3286   -0.5389    0.0000 C   0  0
    0.8614    0.4777    0.0000 C   0  0
    2.7489   -1.9583    0.0000 C   0  0
    2.4224   -2.7806    0.0000 C   0  0
    3.2987   -2.6597    0.0000 C   0  0
   -4.2948    0.7203    0.0000 C   0  0
   -5.0582    0.2740    0.0000 C   0  0
   -5.8274    0.7174    0.0000 F   0  0
   -5.0524   -0.6118    0.0000 F   0  0
   -5.8327   -0.1639    0.0000 F   0  0
   -3.4270    2.0040    0.0000 C   0  0
   -4.2326    1.6160    0.0000 C   0  0
   -3.5600    0.2294    0.0000 N   0  0
   -2.7545    0.6217    0.0000 C   0  0
  1  2  2  0
  2  3  1  0
  3  4  1  0
  4  5  1  0
  5  1  1  0
  4  6  2  0
 15 16  1  0
 15 17  1  0
 15 18  1  0
  7 19  1  0
  7  8  1  0
  8  9  1  0
  9 10  2  0
 10 11  1  0
 11  7  2  0
 10 12  1  0
  9 13  1  0
 13 14  1  0
 13 15  1  0
 20 21  2  0
 21 22  1  0
 22 23  2  0
 23 24  1  0
 24 25  2  0
 25 20  1  0
 25  1  1  0
 22 26  1  0
 26 14  1  0
 24 27  1  0
 28 27  1  0
 29 28  1  0
 27 29  1  0
 30 31  1  0
 31 32  1  0
 31 33  1  0
 31 34  1  0
 35 36  1  0
 35 19  2  0
 36 30  2  0
 30 37  1  0
 37 38  2  0
 38 19  1  0
M  END
>  <ID_NEW>
CPDPP3058

>  <pEC50>
8.57519294095619

$$$$

  -MTS-   10172316532D 0   0.00000     0.00000     0

 36 39  0  0  1  0  0  0  0  0999 V2000
   -3.7220    0.9380    0.0000 C   0  0  0  0  0  0  0  0  0  0  0  0
   -3.7230    0.2100    0.0000 C   0  0  0  0  0  0  0  0  0  0  0  0
   -3.1000   -0.1610    0.0000 N   0  0  0  0  0  0  0  0  0  0  0  0
   -2.4630    0.2110    0.0000 C   0  0  0  0  0  0  0  0  0  0  0  0
   -2.4660    0.9410    0.0000 C   0  0  0  0  0  0  0  0  0  0  0  0
   -3.1020    1.3040    0.0000 C   0  0  0  0  0  0  0  0  0  0  0  0
   -1.8320    1.3110    0.0000 C   0  0  0  0  0  0  0  0  0  0  0  0
   -4.3590   -0.1600    0.0000 C   0  0  0  0  0  0  0  0  0  0  0  0
   -4.3600   -0.8890    0.0000 F   0  0  0  0  0  0  0  0  0  0  0  0
   -4.9860    0.2110    0.0000 F   0  0  0  0  0  0  0  0  0  0  0  0
   -3.6580   -0.3410    0.0000 F   0  0  0  0  0  0  0  0  0  0  0  0
   -1.1730    1.0140    0.0000 S   0  0  0  0  0  0  0  0  0  0  0  0
   -0.6860    1.5620    0.0000 C   0  0  0  0  0  0  0  0  0  0  0  0
   -1.0560    2.1880    0.0000 C   0  0  0  0  0  0  0  0  0  0  0  0
   -1.7620    2.0300    0.0000 N   0  0  0  0  0  0  0  0  0  0  0  0
   -0.7600    2.8590    0.0000 C   0  0  0  0  0  0  0  0  0  0  0  0
    0.0430    1.4870    0.0000 C   0  0  1  0  0  0  0  0  0  0  0  0
    0.3440    0.8220    0.0000 O   0  0  0  0  0  0  0  0  0  0  0  0
    0.4710    2.0730    0.0000 C   0  0  0  0  0  0  0  0  0  0  0  0
    1.1920    2.0070    0.0000 F   0  0  0  0  0  0  0  0  0  0  0  0
    0.1700    2.7510    0.0000 C   0  0  0  0  0  0  0  0  0  0  0  0
    0.5980    3.3370    0.0000 C   0  0  0  0  0  0  0  0  0  0  0  0
    0.9380    1.5090    0.0000 F   0  0  0  0  0  0  0  0  0  0  0  0
    1.6940    1.6120    0.0000 C   0  0  0  0  0  0  0  0  0  0  0  0
    1.6930    0.8230    0.0000 C   0  0  0  0  0  0  0  0  0  0  0  0
    2.3700    0.4260    0.0000 C   0  0  0  0  0  0  0  0  0  0  0  0
    3.0490    0.8230    0.0000 C   0  0  0  0  0  0  0  0  0  0  0  0
    3.0470    1.6120    0.0000 C   0  0  0  0  0  0  0  0  0  0  0  0
    2.3690    2.0000    0.0000 C   0  0  0  0  0  0  0  0  0  0  0  0
    1.0200    0.4270    0.0000 C   0  0  0  0  0  0  0  0  0  0  0  0
    3.7270    2.0050    0.0000 C   0  0  0  0  0  0  0  0  0  0  0  0
    4.4400    1.6840    0.0000 N   0  0  0  0  0  0  0  0  0  0  0  0
    4.9620    2.2800    0.0000 O   0  0  0  0  0  0  0  0  0  0  0  0
    4.5730    2.9530    0.0000 C   0  0  0  0  0  0  0  0  0  0  0  0
    3.8040    2.7860    0.0000 N   0  0  0  0  0  0  0  0  0  0  0  0
    4.8940    3.6750    0.0000 O   0  0  0  0  0  0  0  0  0  0  0  0
  8  9  1  0  0  0  0
  8 10  1  0  0  0  0
  8 11  1  0  0  0  0
  7 12  1  0  0  0  0
 12 13  1  0  0  0  0
 13 14  2  0  0  0  0
 14 15  1  0  0  0  0
 15  7  2  0  0  0  0
 14 16  1  0  0  0  0
 13 17  1  0  0  0  0
 17 18  1  0  0  0  0
 17 19  1  6  0  0  0
 19 20  1  0  0  0  0
 19 21  1  0  0  0  0
 21 22  1  0  0  0  0
 19 23  1  0  0  0  0
  3  4  2  0  0  0  0
  5  7  1  0  0  0  0
  4  5  1  0  0  0  0
  2  3  1  0  0  0  0
  5  6  2  0  0  0  0
  6  1  1  0  0  0  0
  1  2  2  0  0  0  0
  2  8  1  0  0  0  0
 25 26  1  0  0  0  0
 26 27  2  0  0  0  0
 27 28  1  0  0  0  0
 24 25  2  0  0  0  0
 28 29  2  0  0  0  0
 29 24  1  0  0  0  0
 30 18  1  0  0  0  0
 28 31  1  0  0  0  0
 25 30  1  0  0  0  0
 31 32  2  0  0  0  0
 32 33  1  0  0  0  0
 33 34  1  0  0  0  0
 34 35  1  0  0  0  0
 35 31  1  0  0  0  0
 34 36  2  0  0  0  0
M  END
>  <ID_NEW>
CPDPP3059

>  <pEC50>
8.567618351801151

$$$$

  SciTegic12180813022D

 41 45  0  0  0  0            999 V2000
    1.9819   -6.8705    0.0000 C   0  0
    1.9807   -7.4937    0.0000 C   0  0
    2.5205   -7.8066    0.0000 C   0  0
    3.0620   -7.4933    0.0000 C   0  0
    3.0591   -6.8668    0.0000 C   0  0
    2.5187   -6.5577    0.0000 C   0  0
    3.6074   -6.5563    0.0000 C   0  0
    3.6084   -5.9331    0.0000 O   0  0
    4.1484   -5.6183    0.0000 C   0  0
    4.1493   -4.9910    0.0000 C   0  0
    4.6850   -4.6762    0.0000 C   0  0
    4.6860   -4.0489    0.0000 C   0  0
    5.2219   -3.7364    0.0000 C   0  0
    5.8028   -3.9928    0.0000 C   0  0
    4.5736   -1.9914    0.0000 C   0  0
    4.3142   -1.4188    0.0000 C   0  0
    3.6957   -1.3566    0.0000 C   0  0
    3.3246   -1.8683    0.0000 C   0  0
    3.5842   -2.4336    0.0000 C   0  0
    4.2105   -2.4994    0.0000 C   0  0
    3.4423   -0.7774    0.0000 C   0  0
    3.1931   -0.1990    0.0000 F   0  0
    2.8632   -1.0267    0.0000 F   0  0
    4.0217   -0.5290    0.0000 F   0  0
    4.4715   -3.0661    0.0000 C   0  0
    4.2205   -3.6274    0.0000 N   0  0
    5.0880   -3.1215    0.0000 S   0  0
    5.8698   -4.6238    0.0000 O   0  0
    6.4373   -4.8846    0.0000 C   0  0
    6.4985   -5.5100    0.0000 C   0  0
    7.0655   -5.7708    0.0000 C   0  0
    7.5790   -5.4017    0.0000 C   0  0
    7.5135   -4.7814    0.0000 C   0  0
    6.9423   -4.5236    0.0000 C   0  0
    8.0250   -4.4106    0.0000 F   0  0
    8.1428   -5.6658    0.0000 C   0  0
    8.2020   -6.2870    0.0000 N   0  0
    8.7191   -5.4176    0.0000 N   0  0
    9.1263   -5.8943    0.0000 C   0  0
    9.7527   -5.8419    0.0000 O   0  0
    8.8083   -6.4208    0.0000 O   0  0
  3  4  2  0
  4  5  1  0
  5  6  2  0
  6  1  1  0
  5  7  1  0
  7  8  1  0
  8  9  1  0
  9 10  1  0
 10 11  1  0
 11 12  1  0
 12 13  2  0
 13 14  1  0
 15 16  2  0
 16 17  1  0
 17 18  2  0
 18 19  1  0
 19 20  2  0
 20 15  1  0
 17 21  1  0
 21 22  1  0
 21 23  1  0
 21 24  1  0
 20 25  1  0
 25 26  2  0
 25 27  1  0
 13 27  1  0
 12 26  1  0
  1  2  2  0
  2  3  1  0
 14 28  1  0
 28 29  1  0
 29 30  2  0
 30 31  1  0
 31 32  2  0
 32 33  1  0
 33 34  2  0
 34 29  1  0
 33 35  1  0
 32 36  1  0
 36 37  2  0
 36 38  1  0
 38 39  1  0
 39 40  2  0
 39 41  1  0
 41 37  1  0
M  END
>  <ID_NEW>
CPDPP3060

>  <pEC50>
8.541097964295025

$$$$

  -MTS-   10172316532D 0   0.00000     0.00000     0

 38 40  0  0  1  0  0  0  0  0999 V2000
    5.2980    0.7350    0.0000 N   0  0  0  0  0  0  0  0  0  0  0  0
    6.0190    0.9670    0.0000 N   0  0  0  0  0  0  0  0  0  0  0  0
    6.0180    1.7220    0.0000 C   0  0  0  0  0  0  0  0  0  0  0  0
    5.2980    1.9550    0.0000 S   0  0  0  0  0  0  0  0  0  0  0  0
    4.8680    1.3360    0.0000 C   0  0  0  0  0  0  0  0  0  0  0  0
    4.1130    1.3350    0.0000 N   0  0  0  0  0  0  0  0  0  0  0  0
    6.6310    2.1590    0.0000 C   0  0  0  0  0  0  0  0  0  0  0  0
    7.3230    1.8580    0.0000 C   0  0  0  0  0  0  0  0  0  0  0  0
    6.5570    2.9090    0.0000 C   0  0  0  0  0  0  0  0  0  0  0  0
    1.1810    1.9630    0.0000 C   0  0  0  0  0  0  0  0  0  0  0  0
    1.4130    1.2440    0.0000 C   0  0  0  0  0  0  0  0  0  0  0  0
    2.1500    1.0910    0.0000 C   0  0  0  0  0  0  0  0  0  0  0  0
    2.6480    1.6520    0.0000 C   0  0  0  0  0  0  0  0  0  0  0  0
    2.4030    2.3660    0.0000 C   0  0  0  0  0  0  0  0  0  0  0  0
    1.6830    2.5150    0.0000 C   0  0  0  0  0  0  0  0  0  0  0  0
    0.4400    2.1080    0.0000 C   0  0  2  0  0  0  0  0  0  0  0  0
    0.2080    2.8290    0.0000 C   0  0  0  0  0  0  0  0  0  0  0  0
   -0.0600    1.5470    0.0000 C   0  0  0  0  0  0  0  0  0  0  0  0
    0.7000    3.3940    0.0000 C   0  0  0  0  0  0  0  0  0  0  0  0
   -0.7920    1.7170    0.0000 N   0  0  0  0  0  0  0  0  0  0  0  0
    3.3930    1.4960    0.0000 S   0  0  0  0  0  0  0  0  0  0  0  0
    3.7160    2.1620    0.0000 O   0  0  0  0  0  0  0  0  0  0  0  0
    3.2210    0.7650    0.0000 O   0  0  0  0  0  0  0  0  0  0  0  0
   -1.3010    1.1520    0.0000 C   0  0  0  0  0  0  0  0  0  0  0  0
   -2.0330    1.3050    0.0000 C   0  0  0  0  0  0  0  0  0  0  0  0
   -1.0690    0.4390    0.0000 O   0  0  0  0  0  0  0  0  0  0  0  0
   -2.2700    2.0200    0.0000 C   0  0  0  0  0  0  0  0  0  0  0  0
   -2.9940    2.1610    0.0000 C   0  0  0  0  0  0  0  0  0  0  0  0
   -3.4910    1.6120    0.0000 C   0  0  0  0  0  0  0  0  0  0  0  0
   -3.2670    0.8960    0.0000 C   0  0  0  0  0  0  0  0  0  0  0  0
   -2.5320    0.7430    0.0000 C   0  0  0  0  0  0  0  0  0  0  0  0
   -1.7610    2.5760    0.0000 O   0  0  0  0  0  0  0  0  0  0  0  0
   -1.7710    3.3330    0.0000 C   0  0  0  0  0  0  0  0  0  0  0  0
   -1.1180    3.7050    0.0000 C   0  0  0  0  0  0  0  0  0  0  0  0
   -4.2440    1.7600    0.0000 C   0  0  0  0  0  0  0  0  0  0  0  0
   -4.4780    2.4850    0.0000 F   0  0  0  0  0  0  0  0  0  0  0  0
   -4.7440    1.2030    0.0000 F   0  0  0  0  0  0  0  0  0  0  0  0
   -4.9620    1.9670    0.0000 F   0  0  0  0  0  0  0  0  0  0  0  0
 17 19  1  0  0  0  0
 11 12  1  0  0  0  0
 14 15  2  0  0  0  0
 13 21  1  0  0  0  0
 18 20  1  0  0  0  0
 21 22  2  0  0  0  0
 15 10  1  0  0  0  0
 21 23  2  0  0  0  0
 10 11  2  0  0  0  0
 21  6  1  0  0  0  0
 20 24  1  0  0  0  0
  1  2  1  0  0  0  0
 24 25  1  0  0  0  0
  2  3  2  0  0  0  0
 24 26  2  0  0  0  0
  3  4  1  0  0  0  0
 25 27  2  0  0  0  0
  4  5  1  0  0  0  0
 27 28  1  0  0  0  0
  5  1  2  0  0  0  0
 28 29  2  0  0  0  0
  5  6  1  0  0  0  0
 29 30  1  0  0  0  0
  3  7  1  0  0  0  0
 30 31  2  0  0  0  0
 31 25  1  0  0  0  0
  7  8  1  0  0  0  0
 27 32  1  0  0  0  0
  7  9  1  0  0  0  0
 32 33  1  0  0  0  0
 10 16  1  0  0  0  0
 33 34  1  0  0  0  0
 12 13  2  0  0  0  0
 29 35  1  0  0  0  0
 16 17  1  1  0  0  0
 35 36  1  0  0  0  0
 16 18  1  0  0  0  0
 35 37  1  0  0  0  0
 13 14  1  0  0  0  0
 35 38  1  0  0  0  0
M  END
>  <ID_NEW>
CPDPP3061

>  <pEC50>
8.517694256212698

$$$$

  SciTegic12180813012D

 39 43  0  0  0  0            999 V2000
    3.6426    2.3644    0.0000 C   0  0
    4.1276    1.6996    0.0000 N   0  0
    4.9127    1.9533    0.0000 O   0  0
    4.9140    2.7782    0.0000 C   0  0
    4.1299    3.0343    0.0000 N   0  0
    5.5822    3.2621    0.0000 O   0  0
    2.8157    2.3697    0.0000 C   0  0
    1.1692    2.2889    0.0000 C   0  0
    1.6109    1.5945    0.0000 C   0  0
    2.4342    1.6325    0.0000 C   0  0
    2.3640    3.0627    0.0000 C   0  0
    1.5422    3.0212    0.0000 C   0  0
    2.7402    3.7969    0.0000 Cl  0  0
    0.3451    2.2496    0.0000 O   0  0
   -2.2702    1.3785    0.0000 C   0  0
   -1.5074    1.0485    0.0000 O   0  0
   -0.9578    1.6636    0.0000 C   0  0
   -1.3731    2.3763    0.0000 C   0  0
   -2.1874    2.2017    0.0000 N   0  0
   -1.0404    3.1312    0.0000 C   0  0
   -0.1372    1.5804    0.0000 C   0  0
   -2.9824    0.9602    0.0000 C   0  0
   -3.6978    1.3705    0.0000 C   0  0
   -4.4095    0.9529    0.0000 C   0  0
   -4.4038    0.1261    0.0000 C   0  0
   -3.6804   -0.2814    0.0000 C   0  0
   -2.9717    0.1386    0.0000 C   0  0
   -5.1146   -0.2927    0.0000 C   0  0
   -5.8327    0.1135    0.0000 F   0  0
   -5.1074   -1.1177    0.0000 F   0  0
   -5.3352    0.5023    0.0000 F   0  0
    0.2012    0.8280    0.0000 C   0  0
   -0.2668   -0.6660    0.0000 C   0  0
   -0.9762   -1.0872    0.0000 C   0  0
   -0.9636   -1.9103    0.0000 C   0  0
   -0.2432   -2.3120    0.0000 C   0  0
    0.4662   -1.8844    0.0000 C   0  0
    0.4502   -1.0626    0.0000 C   0  0
   -0.2812    0.1587    0.0000 C   0  0
  5  1  1  0
  4  6  2  0
 18 20  1  0
 17 21  1  0
 21 14  1  0
 15 16  1  0
 16 17  1  0
 17 18  2  0
 18 19  1  0
 19 15  2  0
 15 22  1  0
  8  9  2  0
  9 10  1  0
 10  7  2  0
  7 11  1  0
 11 12  2  0
 12  8  1  0
 11 13  1  0
  8 14  1  0
 22 23  2  0
 23 24  1  0
 24 25  2  0
 25 26  1  0
 26 27  2  0
 27 22  1  0
 25 28  1  0
 28 29  1  0
 28 30  1  0
 28 31  1  0
 21 32  1  0
 32 39  1  0
  7  1  1  0
  1  2  2  0
  2  3  1  0
  3  4  1  0
 39 33  1  0
 33 34  2  0
 34 35  1  0
 35 36  2  0
 36 37  1  0
 37 38  2  0
 38 33  1  0
  4  5  1  0
M  END
>  <ID_NEW>
CPDPP3062

>  <pEC50>
8.515279909205598

$$$$

  SciTegic12180813022D

 42 46  0  0  0  0            999 V2000
   -5.8306   -2.8414    0.0000 C   0  0
   -5.8318   -3.4646    0.0000 C   0  0
   -5.2920   -3.7775    0.0000 C   0  0
   -4.7505   -3.4642    0.0000 C   0  0
   -4.7534   -2.8377    0.0000 C   0  0
   -5.2938   -2.5286    0.0000 C   0  0
   -4.2051   -2.5272    0.0000 C   0  0
   -4.2041   -1.9040    0.0000 O   0  0
   -3.6641   -1.5892    0.0000 C   0  0
   -3.6632   -0.9619    0.0000 C   0  0
   -3.1275   -0.6471    0.0000 C   0  0
   -3.1265   -0.0198    0.0000 C   0  0
   -2.5906    0.2927    0.0000 C   0  0
   -2.0097    0.0363    0.0000 C   0  0
   -3.2389    2.0377    0.0000 C   0  0
   -3.4983    2.6103    0.0000 C   0  0
   -4.1168    2.6725    0.0000 C   0  0
   -4.4879    2.1608    0.0000 C   0  0
   -4.2283    1.5955    0.0000 C   0  0
   -3.6020    1.5297    0.0000 C   0  0
   -4.3702    3.2517    0.0000 C   0  0
   -4.6194    3.8301    0.0000 F   0  0
   -4.9493    3.0024    0.0000 F   0  0
   -3.7908    3.5001    0.0000 F   0  0
   -3.3410    0.9630    0.0000 C   0  0
   -3.5920    0.4017    0.0000 N   0  0
   -2.7245    0.9076    0.0000 S   0  0
   -1.9427   -0.5947    0.0000 O   0  0
   -1.3752   -0.8555    0.0000 C   0  0
   -1.3140   -1.4809    0.0000 C   0  0
   -0.7470   -1.7417    0.0000 C   0  0
   -0.2335   -1.3726    0.0000 C   0  0
   -0.2990   -0.7523    0.0000 C   0  0
   -0.8702   -0.4945    0.0000 C   0  0
    0.3303   -1.6367    0.0000 C   0  0
    0.3895   -2.2579    0.0000 N   0  0
    0.9066   -1.3885    0.0000 N   0  0
    1.3138   -1.8652    0.0000 C   0  0
    1.9402   -1.8128    0.0000 O   0  0
    1.0000   -2.3917    0.0000 O   0  0
    0.2158   -0.3819    0.0000 O   0  0
    0.1458    0.2458    0.0000 C   0  0
  3  4  2  0
  4  5  1  0
  5  6  2  0
  6  1  1  0
  5  7  1  0
  7  8  1  0
  8  9  1  0
  9 10  1  0
 10 11  1  0
 11 12  1  0
 12 13  2  0
 13 14  1  0
 15 16  2  0
 16 17  1  0
 17 18  2  0
 18 19  1  0
 19 20  2  0
 20 15  1  0
 17 21  1  0
 21 22  1  0
 21 23  1  0
 21 24  1  0
 20 25  1  0
 25 26  2  0
 25 27  1  0
 13 27  1  0
 12 26  1  0
  1  2  2  0
  2  3  1  0
 14 28  1  0
 28 29  1  0
 29 30  2  0
 30 31  1  0
 31 32  2  0
 32 33  1  0
 33 34  2  0
 34 29  1  0
 32 35  1  0
 35 36  2  0
 35 37  1  0
 37 38  1  0
 38 39  2  0
 38 40  1  0
 40 36  1  0
 33 41  1  0
 41 42  1  0
M  END
>  <ID_NEW>
CPDPP3063

>  <pEC50>
8.514031267553115

$$$$

  SciTegic12180812332D

 35 38  0  0  0  0            999 V2000
    5.4843   -1.5242    0.0000 C   0  0
    5.4831   -2.3516    0.0000 C   0  0
    6.1979   -2.7645    0.0000 C   0  0
    6.1961   -1.1115    0.0000 C   0  0
    6.9115   -1.5206    0.0000 C   0  0
    6.9118   -2.3516    0.0000 C   0  0
    7.7022   -2.6082    0.0000 N   0  0
    8.1906   -1.9357    0.0000 C   0  0
    7.7018   -1.2636    0.0000 C   0  0
    4.7649   -1.1076    0.0000 O   0  0
    6.1936   -0.2865    0.0000 C   0  0
    7.9573   -3.3927    0.0000 C   0  0
    4.7997   -6.3229    0.0000 C   0  0
    4.1552   -5.8041    0.0000 C   0  0
    4.2829   -4.9886    0.0000 C   0  0
    5.0545   -4.6907    0.0000 C   0  0
    5.6990   -5.2146    0.0000 C   0  0
    5.5681   -6.0283    0.0000 C   0  0
    3.3857   -6.1016    0.0000 C   0  0
    3.2586   -6.9168    0.0000 F   0  0
    2.7433   -5.5839    0.0000 F   0  0
    2.6170   -6.4065    0.0000 F   0  0
    6.4699   -4.9206    0.0000 C   0  0
    6.6825   -4.1249    0.0000 S   0  0
    7.5064   -4.0835    0.0000 C   0  0
    7.8004   -4.8545    0.0000 C   0  0
    7.1580   -5.3721    0.0000 N   0  0
    8.5968   -5.0699    0.0000 C   0  0
    9.1815   -4.4878    0.0000 C   0  0
    9.9779   -4.7031    0.0000 C   0  0
   10.5626   -4.1211    0.0000 C   0  0
    4.0459   -1.5125    0.0000 C   0  0
    3.3359   -1.0923    0.0000 C   0  0
    2.6170   -1.4971    0.0000 O   0  0
    3.3447   -0.2674    0.0000 O   0  0
  7 12  1  0
  9  5  1  0
  1 10  1  0
  4  1  1  0
  5  6  1  0
  2  3  1  0
 25 26  2  0
 26 27  1  0
 27 23  2  0
 15 16  2  0
 26 28  1  0
 19 20  1  0
 28 29  1  0
 29 30  1  0
 19 21  1  0
 30 31  1  0
 16 17  1  0
 25 12  1  0
 19 22  1  0
 14 15  1  0
 17 23  1  0
 23 24  1  0
 17 18  2  0
 18 13  1  0
 13 14  2  0
 14 19  1  0
 24 25  1  0
 10 32  1  0
  3  6  2  0
 32 33  1  0
  1  2  2  0
 33 34  1  0
  5  4  2  0
 33 35  2  0
  6  7  1  0
  7  8  1  0
  8  9  2  0
  4 11  1  0
M  END
>  <ID_NEW>
CPDPP3064

>  <pEC50>
8.507196703746075

$$$$

  -MTS-   10172316532D 0   0.00000     0.00000     0

 35 38  0  0  0  0  0  0  0  0999 V2000
   -2.7000    2.0560    0.0000 N   0  0  0  0  0  0  0  0  0  0  0  0
   -3.3270    1.7760    0.0000 C   0  0  0  0  0  0  0  0  0  0  0  0
   -3.8820    2.1770    0.0000 N   0  0  0  0  0  0  0  0  0  0  0  0
   -4.5050    1.8940    0.0000 C   0  0  0  0  0  0  0  0  0  0  0  0
   -4.5750    1.2180    0.0000 C   0  0  0  0  0  0  0  0  0  0  0  0
   -4.0210    0.8180    0.0000 C   0  0  0  0  0  0  0  0  0  0  0  0
   -3.4000    1.0970    0.0000 C   0  0  0  0  0  0  0  0  0  0  0  0
   -5.2060    0.9340    0.0000 C   0  0  0  0  0  0  0  0  0  0  0  0
   -5.8320    0.6540    0.0000 F   0  0  0  0  0  0  0  0  0  0  0  0
   -5.4860    1.5650    0.0000 F   0  0  0  0  0  0  0  0  0  0  0  0
   -4.9220    0.3070    0.0000 F   0  0  0  0  0  0  0  0  0  0  0  0
   -2.8460    0.6970    0.0000 Cl  0  0  0  0  0  0  0  0  0  0  0  0
    1.0360    1.4440    0.0000 N   0  0  0  0  0  0  0  0  0  0  0  0
    1.6160    1.8060    0.0000 C   0  0  0  0  0  0  0  0  0  0  0  0
    2.2210    1.4900    0.0000 N   0  0  0  0  0  0  0  0  0  0  0  0
    2.7140    1.9660    0.0000 N   0  0  0  0  0  0  0  0  0  0  0  0
    2.4160    2.5710    0.0000 C   0  0  0  0  0  0  0  0  0  0  0  0
    1.7330    2.4790    0.0000 S   0  0  0  0  0  0  0  0  0  0  0  0
    2.7560    3.1660    0.0000 C   0  0  0  0  0  0  0  0  0  0  0  0
    3.4430    3.1720    0.0000 C   0  0  0  0  0  0  0  0  0  0  0  0
    2.4120    3.7590    0.0000 C   0  0  0  0  0  0  0  0  0  0  0  0
    0.4280    1.7640    0.0000 S   0  0  0  0  0  0  0  0  0  0  0  0
    0.7470    2.3720    0.0000 O   0  0  0  0  0  0  0  0  0  0  0  0
    0.1100    1.1570    0.0000 O   0  0  0  0  0  0  0  0  0  0  0  0
   -0.1830    2.0820    0.0000 C   0  0  0  0  0  0  0  0  0  0  0  0
   -0.8230    3.0750    0.0000 C   0  0  0  0  0  0  0  0  0  0  0  0
   -1.3990    2.7040    0.0000 C   0  0  0  0  0  0  0  0  0  0  0  0
   -0.2140    2.7680    0.0000 C   0  0  0  0  0  0  0  0  0  0  0  0
   -1.3690    2.0260    0.0000 C   0  0  0  0  0  0  0  0  0  0  0  0
   -0.7570    1.7140    0.0000 C   0  0  0  0  0  0  0  0  0  0  0  0
   -2.0070    3.0160    0.0000 C   0  0  1  0  0  0  0  0  0  0  0  0
   -2.6340    2.7370    0.0000 C   0  0  2  0  0  0  0  0  0  0  0  0
   -3.0910    3.2410    0.0000 C   0  0  0  0  0  0  0  0  0  0  0  0
   -2.7500    3.8300    0.0000 C   0  0  0  0  0  0  0  0  0  0  0  0
   -2.0810    3.6960    0.0000 C   0  0  0  0  0  0  0  0  0  0  0  0
  2  3  2  0  0  0  0
  3  4  1  0  0  0  0
  4  5  2  0  0  0  0
  5  6  1  0  0  0  0
 15 16  1  0  0  0  0
 13 22  1  0  0  0  0
 22 23  2  0  0  0  0
 22 24  2  0  0  0  0
 22 25  1  0  0  0  0
 25 30  1  0  0  0  0
 26 27  2  0  0  0  0
 26 28  1  0  0  0  0
 27 29  1  0  0  0  0
 28 25  2  0  0  0  0
 29 30  2  0  0  0  0
 31 27  1  1  0  0  0
 31 32  1  0  0  0  0
 32 33  1  0  0  0  0
 33 34  1  0  0  0  0
 34 35  1  0  0  0  0
 35 31  1  0  0  0  0
 32  1  1  1  0  0  0
 16 17  2  0  0  0  0
 17 18  1  0  0  0  0
 18 14  1  0  0  0  0
 17 19  1  0  0  0  0
 19 20  1  0  0  0  0
 19 21  1  0  0  0  0
 13 14  1  0  0  0  0
 14 15  2  0  0  0  0
  6  7  2  0  0  0  0
  7  2  1  0  0  0  0
  1  2  1  0  0  0  0
  8  9  1  0  0  0  0
  8 10  1  0  0  0  0
  8 11  1  0  0  0  0
  5  8  1  0  0  0  0
  7 12  1  0  0  0  0
V   31 M1
V   32 M1
M  END
>  <ID_NEW>
CPDPP3065

>  <pEC50>
8.495956429118895

$$$$

  SciTegic12180813092D

 35 39  0  0  0  0            999 V2000
    2.6697   -5.1506    0.0000 C   0  0
    3.4956   -5.1992    0.0000 C   0  0
    3.9489   -4.5094    0.0000 C   0  0
    3.5775   -3.7704    0.0000 C   0  0
    2.7482   -3.7254    0.0000 C   0  0
    2.2985   -4.4161    0.0000 C   0  0
    2.2169   -5.8402    0.0000 C   0  0
    4.0294   -3.0801    0.0000 C   0  0
    4.8531   -3.1312    0.0000 C   0  0
    5.3048   -2.4417    0.0000 C   0  0
    3.6568   -2.3508    0.0000 C   0  0
    5.2192   -0.9286    0.0000 N   0  0
    4.5690   -0.4143    0.0000 C   0  0
    3.8789   -0.8738    0.0000 C   0  0
    4.1027   -1.6721    0.0000 C   0  0
    4.9311   -1.7060    0.0000 C   0  0
    6.0128   -0.7052    0.0000 S   0  0
    6.7171   -1.1349    0.0000 C   0  0
    6.6953   -1.9566    0.0000 C   0  0
    7.3987   -2.3862    0.0000 C   0  0
    8.1239   -1.9911    0.0000 C   0  0
    8.1413   -1.1620    0.0000 C   0  0
    7.4372   -0.7361    0.0000 C   0  0
    7.3783   -3.2109    0.0000 Cl  0  0
    6.1252    0.1121    0.0000 O   0  0
    5.9004   -1.5225    0.0000 O   0  0
    1.3933   -5.7928    0.0000 F   0  0
    2.5878   -6.5771    0.0000 F   0  0
    1.6680   -5.2243    0.0000 F   0  0
    8.8287   -2.4199    0.0000 C   0  0
    8.8993   -3.2377    0.0000 N   0  0
    9.7021   -3.4277    0.0000 O   0  0
   10.1310   -2.7229    0.0000 C   0  0
    9.5931   -2.0974    0.0000 N   0  0
   10.9542   -2.7208    0.0000 O   0  0
 15 16  1  0
 13 14  1  0
 12 13  1  0
 14 15  1  0
 16 12  1  0
 12 17  1  0
 17 18  1  0
 18 19  2  0
 19 20  1  0
 20 21  2  0
 21 22  1  0
 22 23  2  0
 23 18  1  0
 20 24  1  0
 17 25  2  0
 17 26  2  0
  1  2  2  0
  2  3  1  0
  3  4  2  0
  4  5  1  0
  5  6  2  0
  6  1  1  0
  1  7  1  0
  4  8  1  0
  8  9  2  0
  7 27  1  0
  7 28  1  0
  7 29  1  0
 21 30  1  0
 30 31  2  0
  9 10  1  0
 10 16  2  0
 15 11  2  0
 31 32  1  0
 32 33  1  0
 33 34  1  0
 34 30  1  0
 11  8  1  0
 33 35  2  0
M  END
>  <ID_NEW>
CPDPP3066

>  <pEC50>
8.493580527545717

$$$$

  SciTegic12180813082D

 35 38  0  0  0  0            999 V2000
   -1.5605    1.7858    0.0000 C   0  0
   -3.8246    2.6235    0.0000 C   0  0
   -4.2214    2.5647    0.0000 C   0  0
   -3.6028    2.9712    0.0000 S   0  0
   -3.5541    2.3133    0.0000 N   0  0
   -4.3784    2.1935    0.0000 C   0  0
   -4.4681    2.8928    0.0000 C   0  0
   -3.2107    2.8785    0.0000 C   0  0
   -3.1777    2.4599    0.0000 C   0  0
   -4.7808    2.1355    0.0000 C   0  0
   -4.8869    2.8394    0.0000 C   0  0
   -2.8913    3.1486    0.0000 C   0  0
   -2.8176    2.2284    0.0000 C   0  0
   -5.0268    2.4662    0.0000 C   0  0
   -2.5116    3.0096    0.0000 O   0  0
   -5.4298    2.4105    0.0000 C   0  0
   -5.8333    2.3781    0.0000 F   0  0
   -5.3960    2.0098    0.0000 F   0  0
   -5.4628    2.8171    0.0000 F   0  0
   -2.1000    3.0125    0.0000 C   0  0
   -1.8936    2.6606    0.0000 C   0  0
   -1.4993    2.6591    0.0000 C   0  0
   -1.2933    3.0100    0.0000 C   0  0
   -1.4985    3.3718    0.0000 C   0  0
   -1.8961    3.3708    0.0000 C   0  0
   -1.2936    2.3160    0.0000 O   0  0
   -0.8811    3.0095    0.0000 C   0  0
   -0.6823    2.6618    0.0000 N   0  0
   -0.6816    3.3731    0.0000 N   0  0
   -0.2069    3.2593    0.0000 O   0  0
   -0.2045    2.7845    0.0000 C   0  0
    0.0611    2.5450    0.0000 O   0  0
   -2.0972    3.7119    0.0000 F   0  0
   -2.9605    3.5632    0.0000 C   0  0
   -2.6397    3.8316    0.0000 C   0  0
 10 14  1  0
 12 15  1  0
 14 16  1  0
 16 17  1  0
 16 18  1  0
 16 19  1  0
  8  9  2  0
 11 14  2  0
 15 20  1  0
 20 21  2  0
 21 22  1  0
 22 23  2  0
 23 24  1  0
  2  3  1  0
 24 25  2  0
 25 20  1  0
  2  4  1  0
 22 26  1  0
 26  1  1  0
  2  5  2  0
 23 27  1  0
  3  6  1  0
 27 28  1  0
  3  7  2  0
 27 29  2  0
  4  8  1  0
 29 30  1  0
  5  9  1  0
 28 31  1  0
  6 10  2  0
 31 32  2  0
 30 31  1  0
  7 11  1  0
 25 33  1  0
  8 12  1  0
 12 34  1  0
  9 13  1  0
 34 35  1  0
M  END
>  <ID_NEW>
CPDPP3067

>  <pEC50>
8.475044682449104

$$$$

  SciTegic12180813092D

 40 44  0  0  0  0            999 V2000
    1.8253   -5.6540    0.0000 N   0  0
    1.2587   -5.0597    0.0000 C   0  0
    1.4891   -4.2644    0.0000 C   0  0
    2.2880   -4.0689    0.0000 C   0  0
    2.8603   -4.6707    0.0000 C   0  0
    2.6280   -5.4604    0.0000 C   0  0
    3.6611   -4.4714    0.0000 C   0  0
    0.4561   -5.2533    0.0000 C   0  0
    0.0571   -4.5314    0.0000 F   0  0
   -0.2972   -5.5849    0.0000 F   0  0
    0.7215   -6.0348    0.0000 F   0  0
    3.9743   -3.7099    0.0000 S   0  0
    4.7988   -3.7717    0.0000 C   0  0
    4.9942   -4.5706    0.0000 C   0  0
    4.2911   -5.0040    0.0000 N   0  0
    5.7558   -4.8838    0.0000 C   0  0
    5.3276   -3.1399    0.0000 C   0  0
    6.1429   -3.2884    0.0000 O   0  0
    5.0525   -2.3650    0.0000 C   0  0
    4.6436   -1.6484    0.0000 F   0  0
    5.7315   -1.8937    0.0000 C   0  0
    5.6642   -1.0710    0.0000 C   0  0
    4.3024   -2.7075    0.0000 F   0  0
    8.3236   -5.1352    0.0000 C   0  0
    7.5084   -4.9866    0.0000 C   0  0
    7.2333   -4.2117    0.0000 C   0  0
    8.8562   -4.5052    0.0000 C   0  0
    8.5773   -3.7285    0.0000 C   0  0
    7.7658   -3.5818    0.0000 C   0  0
    7.4869   -2.8051    0.0000 N   0  0
    8.0195   -2.1751    0.0000 C   0  0
    8.8347   -2.3236    0.0000 C   0  0
    9.1099   -3.0985    0.0000 C   0  0
    9.6677   -4.6518    0.0000 C   0  0
    6.4218   -4.0650    0.0000 C   0  0
   10.0273   -5.3926    0.0000 N   0  0
   10.8444   -5.2814    0.0000 O   0  0
   10.9911   -4.4698    0.0000 C   0  0
   10.2646   -4.0797    0.0000 N   0  0
   11.7833   -4.2500    0.0000 O   0  0
 14 16  1  0
 13 17  1  0
 17 18  1  0
 17 19  1  0
 19 20  1  0
 19 21  1  0
 21 22  1  0
 19 23  1  0
  3  4  2  0
  5  7  1  0
  4  5  1  0
  2  3  1  0
  5  6  2  0
  6  1  1  0
  1  2  2  0
  2  8  1  0
  8  9  1  0
  8 10  1  0
  8 11  1  0
  7 12  1  0
 26 29  2  0
 29 30  1  0
 24 25  2  0
 30 31  2  0
 28 27  2  0
 31 32  1  0
 27 24  1  0
 32 33  2  0
 33 28  1  0
 27 34  1  0
 25 26  1  0
 28 29  1  0
 26 35  1  0
 18 35  1  0
 34 36  2  0
 12 13  1  0
 13 14  2  0
 14 15  1  0
 36 37  1  0
 37 38  1  0
 38 39  1  0
 39 34  1  0
 15  7  2  0
 38 40  2  0
M  END
>  <ID_NEW>
CPDPP3068

>  <pEC50>
8.466449260804083

$$$$

  SciTegic12180813562D

 36 40  0  0  0  0            999 V2000
    1.9043   -4.5907    0.0000 C   0  0
    1.2905   -5.1469    0.0000 N   0  0
    1.6242   -5.8900    0.0000 C   0  0
    2.4429   -5.8087    0.0000 O   0  0
    2.6185   -5.0001    0.0000 N   0  0
    1.2035   -6.6106    0.0000 O   0  0
    1.1927   -2.5184    0.0000 C   0  0
    1.1918   -3.3462    0.0000 C   0  0
    1.9050   -3.7584    0.0000 C   0  0
    2.6238   -3.3483    0.0000 C   0  0
    2.6250   -2.5173    0.0000 C   0  0
    1.9068   -2.1046    0.0000 C   0  0
    1.9042   -1.2833    0.0000 S   0  0
    2.7301   -1.2832    0.0000 O   0  0
    1.0792   -1.2796    0.0000 O   0  0
   -0.6688    1.9742    0.0000 C   0  0
   -1.1960    2.6003    0.0000 C   0  0
   -2.0125    2.4588    0.0000 C   0  0
   -2.2946    1.6751    0.0000 C   0  0
   -1.7664    1.0495    0.0000 C   0  0
   -0.9522    1.1940    0.0000 C   0  0
   -2.5428    3.1034    0.0000 C   0  0
   -3.0738    3.7393    0.0000 F   0  0
   -3.1798    2.5745    0.0000 F   0  0
   -1.9067    3.6322    0.0000 F   0  0
   -0.2349    0.7792    0.0000 C   0  0
   -0.2360   -0.0440    0.0000 C   0  0
    0.4830   -0.4568    0.0000 C   0  0
    0.4812    1.1920    0.0000 C   0  0
    1.1924    0.7829    0.0000 C   0  0
    1.1954   -0.0419    0.0000 C   0  0
    1.9081   -0.4571    0.0000 N   0  0
    2.6224   -0.0439    0.0000 C   0  0
    2.6236    0.7808    0.0000 C   0  0
    1.9063    1.1923    0.0000 S   0  0
    0.4729   -3.7748    0.0000 Cl  0  0
  1  2  1  0
  2  3  1  0
  3  4  1  0
  4  5  1  0
  5  1  2  0
  3  6  2  0
 12 13  1  0
 13 14  2  0
 10 11  1  0
 13 15  2  0
  8  9  1  0
 11 12  2  0
 12  7  1  0
  7  8  2  0
  9  1  1  0
  9 10  2  0
 17 18  1  0
 20 21  2  0
 22 23  1  0
 21 16  1  0
 22 24  1  0
 16 17  2  0
 26 21  1  0
 22 25  1  0
 18 19  2  0
 18 22  1  0
 19 20  1  0
 27 28  1  0
 28 31  2  0
 26 27  2  0
 30 29  2  0
 29 26  1  0
 30 35  1  0
 31 32  1  0
 32 33  1  0
 33 34  1  0
 34 35  1  0
 30 31  1  0
 32 13  1  0
  8 36  1  0
M  END
>  <ID_NEW>
CPDPP3069

>  <pEC50>
8.453368173670258

$$$$

  -MTS-   10172316532D 0   0.00000     0.00000     0

 46 50  0  0  0  0  0  0  0  0999 V2000
    2.7110   -4.2800    0.0000 C   0  0  0  0  0  0  0  0  0  0  0  0
    3.1040   -3.6840    0.0000 C   0  0  2  0  0  0  0  0  0  0  0  0
    2.7860   -3.0500    0.0000 C   0  0  0  0  0  0  0  0  0  0  0  0
    2.0750   -3.0060    0.0000 C   0  0  0  0  0  0  0  0  0  0  0  0
    1.6820   -3.6010    0.0000 C   0  0  1  0  0  0  0  0  0  0  0  0
    2.0010   -4.2410    0.0000 C   0  0  0  0  0  0  0  0  0  0  0  0
    0.9750   -3.5580    0.0000 C   0  0  0  0  0  0  0  0  0  0  0  0
    0.6590   -2.9240    0.0000 F   0  0  0  0  0  0  0  0  0  0  0  0
    0.5850   -4.1490    0.0000 F   0  0  0  0  0  0  0  0  0  0  0  0
    1.2000   -2.8860    0.0000 F   0  0  0  0  0  0  0  0  0  0  0  0
    3.8110   -3.7270    0.0000 C   0  0  0  0  0  0  0  0  0  0  0  0
    4.1920   -4.3260    0.0000 N   0  0  0  0  0  0  0  0  0  0  0  0
    4.8770   -4.1470    0.0000 C   0  0  0  0  0  0  0  0  0  0  0  0
    4.9190   -3.4400    0.0000 C   0  0  0  0  0  0  0  0  0  0  0  0
    4.2600   -3.1820    0.0000 S   0  0  0  0  0  0  0  0  0  0  0  0
    5.4250   -4.5970    0.0000 C   0  0  0  0  0  0  0  0  0  0  0  0
    5.3090   -5.2960    0.0000 N   0  0  0  0  0  0  0  0  0  0  0  0
    4.6420   -5.5450    0.0000 C   0  0  0  0  0  0  0  0  0  0  0  0
    4.5250   -6.2410    0.0000 C   0  0  0  0  0  0  0  0  0  0  0  0
    5.0700   -6.6930    0.0000 C   0  0  0  0  0  0  0  0  0  0  0  0
    5.7340   -6.4460    0.0000 C   0  0  0  0  0  0  0  0  0  0  0  0
    5.8540   -5.7450    0.0000 C   0  0  0  0  0  0  0  0  0  0  0  0
    4.9510   -7.3920    0.0000 C   0  0  0  0  0  0  0  0  0  0  0  0
    4.2870   -7.6380    0.0000 F   0  0  0  0  0  0  0  0  0  0  0  0
    5.4970   -7.8440    0.0000 F   0  0  0  0  0  0  0  0  0  0  0  0
    4.3070   -7.0970    0.0000 F   0  0  0  0  0  0  0  0  0  0  0  0
    5.5160   -3.0590    0.0000 C   0  0  0  0  0  0  0  0  0  0  0  0
    6.1450   -3.3850    0.0000 O   0  0  0  0  0  0  0  0  0  0  0  0
    5.4840   -2.3510    0.0000 C   0  0  0  0  0  0  0  0  0  0  0  0
    4.8550   -2.0250    0.0000 C   0  0  0  0  0  0  0  0  0  0  0  0
    6.7400   -3.0040    0.0000 C   0  0  0  0  0  0  0  0  0  0  0  0
    7.3710   -3.3290    0.0000 C   0  0  0  0  0  0  0  0  0  0  0  0
    7.9660   -2.9460    0.0000 C   0  0  0  0  0  0  0  0  0  0  0  0
    7.9310   -2.2370    0.0000 C   0  0  0  0  0  0  0  0  0  0  0  0
    7.2960   -1.9140    0.0000 C   0  0  0  0  0  0  0  0  0  0  0  0
    6.7040   -2.2990    0.0000 C   0  0  0  0  0  0  0  0  0  0  0  0
    8.5960   -3.2690    0.0000 O   0  0  0  0  0  0  0  0  0  0  0  0
    8.6310   -3.9770    0.0000 C   0  0  0  0  0  0  0  0  0  0  0  0
    9.2610   -4.3010    0.0000 F   0  0  0  0  0  0  0  0  0  0  0  0
    8.0350   -4.3610    0.0000 F   0  0  0  0  0  0  0  0  0  0  0  0
    8.5260   -1.8520    0.0000 C   0  0  0  0  0  0  0  0  0  0  0  0
    9.1560   -2.1750    0.0000 N   0  0  0  0  0  0  0  0  0  0  0  0
    8.4900   -1.1450    0.0000 N   0  0  0  0  0  0  0  0  0  0  0  0
    9.0840   -0.7600    0.0000 O   0  0  0  0  0  0  0  0  0  0  0  0
    9.6940   -1.7030    0.0000 C   0  0  0  0  0  0  0  0  0  0  0  0
   10.3650   -1.9300    0.0000 O   0  0  0  0  0  0  0  0  0  0  0  0
 20 21  1  0  0  0  0
 21 22  1  0  0  0  0
  7  8  1  0  0  0  0
 20 23  1  0  0  0  0
 23 24  1  0  0  0  0
  7  9  1  0  0  0  0
 23 25  1  0  0  0  0
 23 26  1  0  0  0  0
  7 10  1  0  0  0  0
 14 27  1  0  0  0  0
 27 28  1  0  0  0  0
  2 11  1  6  0  0  0
 27 29  1  0  0  0  0
 11 12  2  0  0  0  0
 29 30  1  0  0  0  0
 28 31  1  0  0  0  0
 31 32  2  0  0  0  0
 32 33  1  0  0  0  0
  1  6  1  0  0  0  0
 33 34  2  0  0  0  0
 12 13  1  0  0  0  0
 34 35  1  0  0  0  0
 13 14  2  0  0  0  0
 35 36  2  0  0  0  0
 36 31  1  0  0  0  0
 14 15  1  0  0  0  0
 15 11  1  0  0  0  0
 33 37  1  0  0  0  0
  2  3  1  0  0  0  0
 37 38  1  0  0  0  0
 13 16  1  0  0  0  0
 38 39  1  0  0  0  0
  3  4  1  0  0  0  0
 38 40  1  0  0  0  0
 16 17  1  0  0  0  0
 34 41  1  0  0  0  0
 17 18  1  0  0  0  0
 41 42  1  0  0  0  0
  5  4  1  0  0  0  0
 41 43  2  0  0  0  0
  5  6  1  0  0  0  0
 43 44  1  0  0  0  0
  5  7  1  1  0  0  0
  1  2  1  0  0  0  0
 17 22  1  0  0  0  0
 18 19  1  0  0  0  0
 19 20  1  0  0  0  0
 42 45  1  0  0  0  0
 45 46  2  0  0  0  0
 44 45  1  0  0  0  0
V    2 M1
V    5 M1
M  END
>  <ID_NEW>
CPDPP3070

>  <pEC50>
8.448521431983483

$$$$

  SciTegic12180813072D

 39 43  0  0  0  0            999 V2000
    5.4201   -4.2916    0.0000 C   0  0
    5.9681   -4.9093    0.0000 C   0  0
    6.7795   -4.7433    0.0000 C   0  0
    7.0397   -3.9566    0.0000 C   0  0
    7.8511   -3.7906    0.0000 C   0  0
    4.6087   -4.4576    0.0000 C   0  0
    5.6803   -3.5049    0.0000 C   0  0
    6.4917   -3.3388    0.0000 C   0  0
    6.7519   -2.5522    0.0000 C   0  0
    6.2038   -1.9344    0.0000 C   0  0
    5.3925   -2.1004    0.0000 C   0  0
    5.1322   -2.8871    0.0000 C   0  0
   -0.0325   -2.9736    0.0000 C   0  0
   -0.5906   -3.5812    0.0000 C   0  0
   -0.3374   -4.3725    0.0000 C   0  0
    0.4677   -4.5507    0.0000 C   0  0
    1.0255   -3.9372    0.0000 C   0  0
    0.7785   -3.1514    0.0000 C   0  0
   -1.3956   -3.4089    0.0000 C   0  0
    1.8366   -4.1151    0.0000 C   0  0
   -1.7788   -4.1395    0.0000 F   0  0
   -2.1605   -3.0936    0.0000 F   0  0
   -1.1501   -2.6178    0.0000 F   0  0
    2.1657   -4.8707    0.0000 S   0  0
    2.9891   -4.7926    0.0000 C   0  0
    3.1664   -3.9821    0.0000 C   0  0
    2.4518   -3.5646    0.0000 N   0  0
    3.9237   -3.6511    0.0000 C   0  0
    3.5371   -5.4103    0.0000 C   0  0
    4.3485   -5.2443    0.0000 O   0  0
    3.2738   -6.1942    0.0000 C   0  0
    3.9657   -6.6503    0.0000 F   0  0
    2.8846   -6.9227    0.0000 F   0  0
    2.5183   -5.8654    0.0000 F   0  0
    8.4588   -4.3519    0.0000 N   0  0
    9.1791   -3.9433    0.0000 O   0  0
    9.0131   -3.1319    0.0000 C   0  0
    8.1901   -3.0392    0.0000 N   0  0
    9.5125   -2.4375    0.0000 O   0  0
  1  6  1  0
  7  8  1  0
  8  9  1  0
  9 10  2  0
 10 11  1  0
 11 12  2  0
 12  7  1  0
  7  1  2  0
  1  2  1  0
 19 23  1  0
 20 24  1  0
 17 18  2  0
 18 13  1  0
 13 14  2  0
 14 19  1  0
 24 25  1  0
 25 26  2  0
 26 27  1  0
 27 20  2  0
 15 16  2  0
 26 28  1  0
 17 20  1  0
 25 29  1  0
 29 30  1  0
 19 21  1  0
 29 31  1  0
 16 17  1  0
 31 32  1  0
 19 22  1  0
 31 33  1  0
 14 15  1  0
 31 34  1  0
  6 30  1  0
  5 35  2  0
  2  3  2  0
  3  4  1  0
  4  8  2  0
 35 36  1  0
 36 37  1  0
 37 38  1  0
 38  5  1  0
  4  5  1  0
 37 39  2  0
M  END
>  <ID_NEW>
CPDPP3071

>  <pEC50>
8.44395698086329

$$$$

  SciTegic12180813072D

 37 41  0  0  0  0            999 V2000
    4.3548   -4.1672    0.0000 C   0  0
    3.9471   -4.8872    0.0000 C   0  0
    4.3666   -5.5980    0.0000 C   0  0
    5.1777   -4.1577    0.0000 C   0  0
    5.5995   -4.8658    0.0000 C   0  0
    5.1974   -5.5878    0.0000 C   0  0
    5.7599   -6.1933    0.0000 C   0  0
    6.5096   -5.8455    0.0000 C   0  0
    6.4105   -5.0250    0.0000 N   0  0
    5.0468   -6.6059    0.0000 C   0  0
    6.1776   -6.8997    0.0000 C   0  0
    3.1221   -4.8945    0.0000 C   0  0
    2.7055   -4.1834    0.0000 C   0  0
    1.8813   -4.1904    0.0000 C   0  0
    1.4744   -4.9091    0.0000 C   0  0
    1.8977   -5.6222    0.0000 C   0  0
    2.7205   -5.6116    0.0000 C   0  0
    0.6494   -4.9175    0.0000 C   0  0
    0.2296   -4.2073    0.0000 F   0  0
    0.2443   -5.6362    0.0000 F   0  0
    0.8548   -4.1185    0.0000 F   0  0
    7.0149   -4.4635    0.0000 S   0  0
    7.4208   -5.1750    0.0000 O   0  0
    6.5958   -3.7459    0.0000 O   0  0
    7.6284   -3.9119    0.0000 C   0  0
    8.4099   -4.1685    0.0000 C   0  0
    9.0230   -3.6177    0.0000 C   0  0
    8.8523   -2.8097    0.0000 C   0  0
    8.0630   -2.5554    0.0000 C   0  0
    7.4532   -3.1079    0.0000 C   0  0
    9.4651   -2.2572    0.0000 C   0  0
    9.8074   -3.8735    0.0000 Cl  0  0
   10.2701   -2.4243    0.0000 N   0  0
   10.6822   -1.7095    0.0000 C   0  0
   10.1297   -1.0966    0.0000 O   0  0
    9.3762   -1.4328    0.0000 N   0  0
   11.5026   -1.6227    0.0000 O   0  0
  1  2  2  0
  2  3  1  0
  3  6  2  0
  5  4  2  0
  4  1  1  0
  5  6  1  0
  6  7  1  0
  7  8  1  0
  8  9  1  0
  9  5  1  0
  7 10  1  0
  7 11  1  0
  2 12  1  0
 12 13  2  0
 13 14  1  0
 14 15  2  0
 15 16  1  0
 16 17  2  0
 17 12  1  0
 15 18  1  0
 18 19  1  0
 18 20  1  0
 18 21  1  0
  9 22  1  0
 22 23  2  0
 22 24  2  0
 22 25  1  0
 25 26  2  0
 26 27  1  0
 27 28  2  0
 28 29  1  0
 29 30  2  0
 30 25  1  0
 28 31  1  0
 27 32  1  0
 31 33  2  0
 33 34  1  0
 34 35  1  0
 35 36  1  0
 36 31  1  0
 34 37  2  0
M  END
>  <ID_NEW>
CPDPP3072

>  <pEC50>
8.419727784233107

$$$$

  SciTegic12180813012D

 34 37  0  0  0  0            999 V2000
   -0.9222    3.6613    0.0000 C   0  0
   -1.2313    3.1988    0.0000 C   0  0
   -0.9784    2.7030    0.0000 C   0  0
   -0.4265    2.6673    0.0000 C   0  0
   -0.1273    3.1389    0.0000 C   0  0
   -0.3710    3.6254    0.0000 C   0  0
   -1.7791    3.2270    0.0000 O   0  0
   -0.1866    2.1756    0.0000 Cl  0  0
   -4.6712    2.7503    0.0000 C   0  0
   -4.9770    2.2910    0.0000 C   0  0
   -4.7315    1.7983    0.0000 C   0  0
   -4.1856    1.7693    0.0000 C   0  0
   -3.8814    2.2334    0.0000 C   0  0
   -4.1260    2.7211    0.0000 C   0  0
   -5.5284    2.3225    0.0000 C   0  0
   -5.7732    2.8192    0.0000 F   0  0
   -5.8325    1.8650    0.0000 F   0  0
   -5.3566    2.8434    0.0000 F   0  0
   -3.3363    2.1980    0.0000 C   0  0
   -3.0356    1.7350    0.0000 N   0  0
   -2.5071    1.8833    0.0000 C   0  0
   -2.4730    2.4338    0.0000 C   0  0
   -2.9865    2.6255    0.0000 S   0  0
   -2.0063    2.7289    0.0000 C   0  0
   -2.0781    1.5348    0.0000 C   0  0
   -2.1676    0.9886    0.0000 C   0  0
   -1.7386    0.6400    0.0000 C   0  0
   -1.8216    0.0931    0.0000 C   0  0
    0.4304    3.1107    0.0000 C   0  0
    0.8391    2.7052    0.0000 N   0  0
    0.7338    3.5796    0.0000 N   0  0
    1.3302    2.9229    0.0000 O   0  0
    1.2915    3.5514    0.0000 C   0  0
    1.6175    3.8296    0.0000 O   0  0
 31 33  1  0
 33 32  1  0
  4  5  1  0
 33 34  2  0
  1  2  2  0
  5  6  2  0
  6  1  1  0
  2  7  1  0
  9 10  2  0
 10 11  1  0
 11 12  2  0
 12 13  1  0
 13 14  2  0
 14  9  1  0
 10 15  1  0
 15 16  1  0
 15 17  1  0
 15 18  1  0
 13 19  1  0
 20 21  1  0
 19 20  2  0
 21 22  2  0
 22 23  1  0
 23 19  1  0
 22 24  1  0
 21 25  1  0
 25 26  1  0
 26 27  1  0
 27 28  2  0
  7 24  1  0
  2  3  1  0
  5 29  1  0
  4  8  1  0
 29 30  2  0
 29 31  1  0
  3  4  2  0
 30 32  1  0
M  END
>  <ID_NEW>
CPDPP3073

>  <pEC50>
8.414244910787545

$$$$

  SciTegic12180813082D

 33 36  0  0  0  0            999 V2000
    4.8588   -4.2348    0.0000 C   0  0
    4.4286   -4.2895    0.0000 C   0  0
    5.0973   -3.8580    0.0000 S   0  0
    5.1460   -4.5659    0.0000 N   0  0
    4.2591   -4.6899    0.0000 C   0  0
    4.1736   -3.9405    0.0000 C   0  0
    5.5185   -3.9590    0.0000 C   0  0
    5.5557   -4.4151    0.0000 C   0  0
    3.8317   -4.7478    0.0000 C   0  0
    3.7215   -4.0023    0.0000 C   0  0
    5.8546   -3.6722    0.0000 C   0  0
    5.9283   -4.6550    0.0000 C   0  0
    3.5649   -4.3964    0.0000 C   0  0
    6.2676   -3.8196    0.0000 O   0  0
    3.1411   -4.4562    0.0000 C   0  0
    2.7084   -4.4886    0.0000 F   0  0
    3.1748   -4.8860    0.0000 F   0  0
    3.0997   -4.0246    0.0000 F   0  0
    6.7000   -3.8167    0.0000 C   0  0
    6.9231   -4.1936    0.0000 C   0  0
    7.3508   -4.1909    0.0000 C   0  0
    7.5650   -3.8192    0.0000 C   0  0
    7.3515   -3.4365    0.0000 C   0  0
    6.9206   -3.4375    0.0000 C   0  0
    7.5648   -4.5632    0.0000 F   0  0
    8.0106   -3.8197    0.0000 C   0  0
    8.2219   -4.1883    0.0000 N   0  0
    8.2184   -3.4311    0.0000 N   0  0
    8.7390   -3.5491    0.0000 O   0  0
    8.7414   -4.0572    0.0000 C   0  0
    9.0194   -4.3175    0.0000 O   0  0
    5.7770   -3.2358    0.0000 C   0  0
    6.1093   -2.9494    0.0000 C   0  0
  1  2  1  0
  1  3  1  0
  1  4  2  0
  2  5  1  0
  2  6  2  0
  3  7  1  0
  4  8  1  0
  5  9  2  0
  6 10  1  0
  7 11  1  0
  8 12  1  0
  9 13  1  0
 11 14  1  0
 13 15  1  0
 15 16  1  0
 15 17  1  0
 15 18  1  0
  7  8  2  0
 10 13  2  0
 14 19  1  0
 19 20  2  0
 20 21  1  0
 21 22  2  0
 22 23  1  0
 23 24  2  0
 24 19  1  0
 21 25  1  0
 22 26  1  0
 26 27  1  0
 26 28  2  0
 28 29  1  0
 27 30  1  0
 30 31  2  0
 29 30  1  0
 11 32  1  0
 32 33  1  0
M  END
>  <ID_NEW>
CPDPP3074

>  <pEC50>
8.379639992225192

$$$$

  SciTegic12180813092D

 44 48  0  0  0  0            999 V2000
   -3.8496    3.0944    0.0000 C   0  0
   -4.2422    3.0355    0.0000 C   0  0
   -3.6278    3.4420    0.0000 S   0  0
   -3.5791    2.7841    0.0000 N   0  0
   -4.3951    2.6685    0.0000 C   0  0
   -4.4847    3.3595    0.0000 C   0  0
   -3.2441    3.3452    0.0000 C   0  0
   -3.2068    2.9308    0.0000 C   0  0
   -4.7933    2.6105    0.0000 C   0  0
   -4.8952    3.3061    0.0000 C   0  0
   -2.9246    3.6153    0.0000 C   0  0
   -2.8551    2.6992    0.0000 C   0  0
   -5.0393    2.9370    0.0000 C   0  0
   -2.5532    3.4721    0.0000 O   0  0
   -5.4339    2.8814    0.0000 C   0  0
   -5.8333    2.8531    0.0000 F   0  0
   -5.4002    2.4848    0.0000 F   0  0
   -5.4670    3.2879    0.0000 F   0  0
   -2.1458    3.4750    0.0000 C   0  0
   -1.9395    3.1315    0.0000 C   0  0
   -1.5493    3.1299    0.0000 C   0  0
   -1.3475    3.4725    0.0000 C   0  0
   -1.5485    3.8302    0.0000 C   0  0
   -1.9419    3.8292    0.0000 C   0  0
   -1.3477    2.7868    0.0000 O   0  0
   -0.9395    3.4720    0.0000 C   0  0
   -0.7448    3.1326    0.0000 N   0  0
   -0.7441    3.8315    0.0000 N   0  0
   -0.2736    3.7259    0.0000 O   0  0
   -0.2711    3.2512    0.0000 C   0  0
   -0.0098    3.0117    0.0000 O   0  0
   -2.8780    2.2935    0.0000 N   0  0
   -3.2493    2.1058    0.0000 C   0  0
   -3.2688    1.6892    0.0000 C   0  0
   -2.9221    1.4686    0.0000 C   0  0
   -2.5551    1.6546    0.0000 C   0  0
   -2.5389    2.0614    0.0000 C   0  0
   -2.9547    1.0503    0.0000 C   0  0
   -3.3218    0.8731    0.0000 F   0  0
   -2.6078    0.8342    0.0000 F   0  0
   -3.3387    1.1806    0.0000 F   0  0
   -1.2329    2.3367    0.0000 C   0  0
   -1.4508    1.9618    0.0000 F   0  0
   -0.7834    2.2000    0.0000 F   0  0
  1  4  2  0
  2  5  1  0
 32 37  1  0
 33 34  1  0
 34 35  1  0
 35 36  1  0
 36 37  1  0
  2  6  2  0
 35 38  1  0
  3  7  1  0
 38 39  1  0
  4  8  1  0
 38 40  1  0
  5  9  2  0
 38 41  1  0
  6 10  1  0
  7 11  1  0
 42 43  1  0
  8 12  1  0
 42 44  1  0
 25 42  1  0
  9 13  1  0
 11 14  1  0
 13 15  1  0
 15 16  1  0
 15 17  1  0
 15 18  1  0
  7  8  2  0
 10 13  2  0
 14 19  1  0
 19 20  2  0
 20 21  1  0
 21 22  2  0
 22 23  1  0
 23 24  2  0
 24 19  1  0
 21 25  1  0
 22 26  1  0
 26 27  1  0
 26 28  2  0
 28 29  1  0
 27 30  1  0
 30 31  2  0
 29 30  1  0
 12 32  1  0
 32 33  1  0
  1  2  1  0
  1  3  1  0
M  END
>  <ID_NEW>
CPDPP3075

>  <pEC50>
8.374877959730982

$$$$

  SciTegic12180812592D

 38 42  0  0  0  0            999 V2000
   10.1426   -3.5023    0.0000 C   0  0
   10.6276   -4.1671    0.0000 N   0  0
   11.4127   -3.9134    0.0000 O   0  0
   11.4140   -3.0885    0.0000 C   0  0
   10.6299   -2.8324    0.0000 N   0  0
   12.0822   -2.6046    0.0000 O   0  0
    9.3157   -3.4970    0.0000 C   0  0
    7.6692   -3.5778    0.0000 C   0  0
    8.1109   -4.2722    0.0000 C   0  0
    8.9342   -4.2342    0.0000 C   0  0
    8.8640   -2.8040    0.0000 C   0  0
    8.0422   -2.8455    0.0000 C   0  0
    9.2402   -2.0698    0.0000 Cl  0  0
    6.8451   -3.6171    0.0000 O   0  0
    4.2298   -4.4882    0.0000 C   0  0
    4.9926   -4.8182    0.0000 S   0  0
    5.5422   -4.2031    0.0000 C   0  0
    5.1269   -3.4904    0.0000 C   0  0
    4.3126   -3.6650    0.0000 N   0  0
    5.4596   -2.7355    0.0000 C   0  0
    6.3628   -4.2863    0.0000 C   0  0
    3.5176   -4.9065    0.0000 C   0  0
    2.8022   -4.4962    0.0000 C   0  0
    2.0905   -4.9138    0.0000 C   0  0
    2.0962   -5.7406    0.0000 C   0  0
    2.8196   -6.1481    0.0000 C   0  0
    3.5283   -5.7281    0.0000 C   0  0
    1.3854   -6.1594    0.0000 C   0  0
    0.6673   -5.7532    0.0000 F   0  0
    1.3926   -6.9844    0.0000 F   0  0
    1.1648   -5.3644    0.0000 F   0  0
    6.7012   -5.0387    0.0000 C   0  0
    6.4833   -5.8334    0.0000 C   0  0
    5.6845   -6.0396    0.0000 C   0  0
    5.4665   -6.8334    0.0000 C   0  0
    6.0460   -7.4204    0.0000 C   0  0
    6.8466   -7.2081    0.0000 C   0  0
    7.0609   -6.4146    0.0000 C   0  0
  7  1  1  0
  1  2  2  0
  2  3  1  0
  3  4  1  0
  4  5  1  0
  5  1  1  0
  4  6  2  0
 18 20  1  0
 17 21  1  0
 21 14  1  0
 15 16  1  0
 16 17  1  0
 17 18  2  0
 18 19  1  0
 19 15  2  0
 15 22  1  0
  8  9  2  0
  9 10  1  0
 10  7  2  0
  7 11  1  0
 11 12  2  0
 12  8  1  0
 11 13  1  0
  8 14  1  0
 22 23  2  0
 23 24  1  0
 24 25  2  0
 25 26  1  0
 26 27  2  0
 27 22  1  0
 25 28  1  0
 28 29  1  0
 28 30  1  0
 28 31  1  0
 21 32  1  0
 32 33  1  0
 33 34  2  0
 34 35  1  0
 35 36  2  0
 36 37  1  0
 37 38  2  0
 38 33  1  0
M  END
>  <ID_NEW>
CPDPP3076

>  <pEC50>
8.370144001574575

$$$$

  SciTegic12180813042D

 38 42  0  0  0  0            999 V2000
    1.2635    1.1201    0.0000 C   0  0
    1.6988    0.3437    0.0000 C   0  0
    2.5914    0.3359    0.0000 C   0  0
    2.6007    1.8811    0.0000 C   0  0
    1.7137    1.8853    0.0000 C   0  0
    3.0339    1.1041    0.0000 C   0  0
    3.0490    2.6417    0.0000 Cl  0  0
    3.9173    1.0978    0.0000 C   0  0
    4.4308    0.3832    0.0000 N   0  0
    5.2729    0.6502    0.0000 O   0  0
    5.2792    1.5337    0.0000 C   0  0
    4.4409    1.8125    0.0000 N   0  0
    5.9975    2.0479    0.0000 O   0  0
    0.5889    1.0055    0.0000 O   0  0
   -4.1589    1.1906    0.0000 C   0  0
   -4.5828    0.4801    0.0000 C   0  0
   -4.1795   -0.2402    0.0000 C   0  0
   -3.3524   -0.2511    0.0000 C   0  0
   -2.9304    0.4642    0.0000 C   0  0
   -3.3361    1.1815    0.0000 C   0  0
   -2.1054    0.4566    0.0000 C   0  0
   -1.6296   -0.2130    0.0000 N   0  0
   -0.8418    0.0348    0.0000 C   0  0
   -0.8355    0.8610    0.0000 C   0  0
   -1.6195    1.1209    0.0000 S   0  0
   -0.1785   -0.4557    0.0000 C   0  0
   -5.4077    0.4914    0.0000 C   0  0
   -5.8301   -0.2173    0.0000 F   0  0
   -5.8103    1.2115    0.0000 F   0  0
   -4.8325   -0.0999    0.0000 F   0  0
   -0.8596    2.5898    0.0000 C   0  0
   -0.8510    3.4127    0.0000 C   0  0
   -1.5612    3.8310    0.0000 C   0  0
   -2.2800    3.4243    0.0000 C   0  0
   -2.2842    2.5950    0.0000 C   0  0
   -1.5733    2.1805    0.0000 N   0  0
   -0.1526    2.1696    0.0000 C   0  0
   -0.1631    1.3446    0.0000 C   0  0
  1  2  2  0
  4  5  2  0
  5  1  1  0
  2  3  1  0
  3  6  2  0
  4  6  1  0
  4  7  1  0
  6  8  1  0
 14  1  1  0
  8  9  2  0
  9 10  1  0
 10 11  1  0
 11 12  1  0
 12  8  1  0
 11 13  2  0
 17 18  2  0
 19 21  1  0
 22 23  1  0
 18 19  1  0
 16 17  1  0
 19 20  2  0
 21 22  2  0
 23 24  2  0
 24 25  1  0
 25 21  1  0
 20 15  1  0
 24 38  1  0
 15 16  2  0
 23 26  1  0
 16 27  1  0
 27 28  1  0
 27 29  1  0
 27 30  1  0
 38 14  1  0
 37 31  1  0
 31 32  2  0
 32 33  1  0
 33 34  2  0
 34 35  1  0
 35 36  2  0
 36 31  1  0
 37 38  1  0
M  END
>  <ID_NEW>
CPDPP3077

>  <pEC50>
8.353745440690105

$$$$

  SciTegic12180813592D

 38 42  0  0  0  0            999 V2000
    0.0379   -4.3451    0.0000 C   0  0
   -0.6691   -4.8615    0.0000 N   0  0
   -0.3999   -5.6976    0.0000 O   0  0
    0.4784   -5.6999    0.0000 C   0  0
    0.7519   -4.8653    0.0000 N   0  0
    0.9928   -6.4118    0.0000 O   0  0
    0.0010   -1.6801    0.0000 C   0  0
   -0.7616   -2.1356    0.0000 C   0  0
   -0.7503   -3.0243    0.0000 C   0  0
    0.0266   -3.4596    0.0000 C   0  0
    0.7944   -2.9966    0.0000 C   0  0
    0.7750   -2.1120    0.0000 C   0  0
    1.5713   -3.4264    0.0000 Cl  0  0
   -0.0094   -1.0656    0.0000 S   0  0
   -4.4048    2.5186    0.0000 C   0  0
   -4.4558    1.6929    0.0000 C   0  0
   -3.7671    1.2377    0.0000 C   0  0
   -3.0271    1.6070    0.0000 C   0  0
   -2.9799    2.4363    0.0000 C   0  0
   -3.6693    2.8878    0.0000 C   0  0
   -5.0932    2.9733    0.0000 C   0  0
   -5.0437    3.7971    0.0000 F   0  0
   -5.8311    2.6045    0.0000 F   0  0
   -4.4753    3.5288    0.0000 F   0  0
   -2.3403    1.1500    0.0000 C   0  0
   -2.3312    0.2544    0.0000 C   0  0
   -1.5499   -0.1874    0.0000 C   0  0
   -1.5702    1.6063    0.0000 C   0  0
   -0.7839    1.1624    0.0000 C   0  0
   -0.7818    0.2670    0.0000 C   0  0
   -0.0088   -0.1743    0.0000 N   0  0
    0.7669    0.2748    0.0000 C   0  0
    0.7648    1.1703    0.0000 C   0  0
   -0.0130    1.6166    0.0000 C   0  0
   -0.6165    2.2982    0.0000 C   0  0
    0.4776    2.3740    0.0000 C   0  0
    0.8125   -1.0625    0.0000 O   0  0
   -0.8375   -1.0583    0.0000 O   0  0
  1  2  2  0
  2  3  1  0
  3  4  1  0
  4  5  1  0
  5  1  1  0
  4  6  2  0
  7  8  2  0
  8  9  1  0
  9 10  2  0
 10 11  1  0
 11 12  2  0
 12  7  1  0
 11 13  1  0
 10  1  1  0
  7 14  1  0
 25 18  1  0
 15 16  2  0
 16 17  1  0
 17 18  2  0
 18 19  1  0
 19 20  2  0
 20 15  1  0
 15 21  1  0
 21 22  1  0
 21 23  1  0
 21 24  1  0
 29 28  1  0
 27 30  1  0
 28 25  2  0
 25 26  1  0
 26 27  2  0
 29 34  1  0
 30 31  1  0
 31 32  1  0
 32 33  1  0
 33 34  1  0
 34 35  1  0
 29 30  2  0
 34 36  1  0
 31 14  1  0
 14 37  2  0
 14 38  2  0
M  END
>  <ID_NEW>
CPDPP3078

>  <pEC50>
8.340491362235827

$$$$

  SciTegic12180814002D

 40 45  0  0  0  0            999 V2000
    0.2834   -4.4946    0.0000 C   0  0
   -0.4436   -4.9903    0.0000 N   0  0
   -0.1964   -5.8376    0.0000 O   0  0
    0.6858   -5.8642    0.0000 C   0  0
    0.9836   -5.0335    0.0000 N   0  0
    1.2165   -6.5625    0.0000 O   0  0
    0.2964   -1.8346    0.0000 C   0  0
   -0.4758   -2.2735    0.0000 C   0  0
   -0.4838   -3.1622    0.0000 C   0  0
    0.2834   -3.6143    0.0000 C   0  0
    1.0611   -3.1680    0.0000 C   0  0
    1.0609   -2.2832    0.0000 C   0  0
    1.8285   -3.6146    0.0000 C   0  0
    0.3015   -0.9504    0.0000 S   0  0
    1.1859   -0.9551    0.0000 O   0  0
   -0.5879   -0.9490    0.0000 O   0  0
   -1.9972    1.2583    0.0000 C   0  0
   -1.9984    0.3727    0.0000 C   0  0
   -1.2336   -0.0694    0.0000 C   0  0
   -0.4671    0.3731    0.0000 C   0  0
   -0.4700    1.2620    0.0000 C   0  0
   -1.2354    1.7003    0.0000 C   0  0
    0.2929    1.7064    0.0000 C   0  0
    0.2980   -0.0674    0.0000 N   0  0
    1.0630    1.2674    0.0000 C   0  0
   -2.7643    1.7008    0.0000 C   0  0
   -2.7592    2.5839    0.0000 C   0  0
   -3.5254    3.0264    0.0000 C   0  0
   -4.2932    2.5832    0.0000 C   0  0
   -4.2900    1.6930    0.0000 C   0  0
   -3.5232    1.2546    0.0000 C   0  0
   -5.0618    3.0252    0.0000 C   0  0
   -4.6208    3.8000    0.0000 F   0  0
   -5.5083    2.2583    0.0000 F   0  0
   -5.8333    3.4750    0.0000 F   0  0
    1.0583    0.3750    0.0000 C   0  0
    1.5042    2.0417    0.0000 C   0  0
    1.9500    1.2708    0.0000 C   0  0
    2.2699   -4.3802    0.0000 C   0  0
    2.7165   -3.6128    0.0000 C   0  0
  1  2  2  0
  2  3  1  0
  3  4  1  0
  4  5  1  0
  5  1  1  0
  4  6  2  0
  7  8  2  0
  8  9  1  0
  9 10  2  0
 10 11  1  0
 11 12  2  0
 12  7  1  0
 11 13  1  0
 10  1  1  0
  7 14  1  0
 14 15  2  0
 14 16  2  0
 17 18  2  0
 18 19  1  0
 19 20  2  0
 20 21  1  0
 21 22  2  0
 22 17  1  0
 21 23  1  0
 20 24  1  0
 23 25  1  0
 17 26  1  0
 26 27  2  0
 27 28  1  0
 28 29  2  0
 29 30  1  0
 30 31  2  0
 31 26  1  0
 29 32  1  0
 32 33  1  0
 32 34  1  0
 32 35  1  0
 24 36  1  0
 25 36  1  0
 24 14  1  0
 25 37  1  0
 25 38  1  0
 39 13  1  0
 40 39  1  0
 13 40  1  0
M  END
>  <ID_NEW>
CPDPP3079

>  <pEC50>
8.325066440705267

$$$$

  SciTegic12180812582D

 36 40  0  0  0  0            999 V2000
    0.9510    1.4679    0.0000 C   0  0
    0.1966    1.3165    0.0000 C   0  0
   -0.0476    0.5876    0.0000 C   0  0
    0.4584    0.0101    0.0000 C   0  0
    1.2129    0.1616    0.0000 C   0  0
    1.4612    0.8905    0.0000 C   0  0
   -0.7979    0.4404    0.0000 O   0  0
    1.7189   -0.4158    0.0000 Cl  0  0
    2.2114    1.0378    0.0000 C   0  0
   -4.4061   -0.1331    0.0000 C   0  0
   -4.9256   -0.6975    0.0000 C   0  0
   -4.6959   -1.4298    0.0000 C   0  0
   -3.9465   -1.6021    0.0000 C   0  0
   -3.4269   -1.0336    0.0000 C   0  0
   -3.6567   -0.3012    0.0000 C   0  0
   -5.2198   -1.9942    0.0000 C   0  0
   -3.1369    0.2589    0.0000 C   0  0
   -2.3725    0.1706    0.0000 S   0  0
   -2.0501    0.8705    0.0000 C   0  0
   -2.6148    1.3883    0.0000 C   0  0
   -3.2855    1.0133    0.0000 N   0  0
   -2.5241    2.1530    0.0000 C   0  0
   -1.3040    1.0178    0.0000 C   0  0
   -4.8123   -2.6417    0.0000 F   0  0
   -5.8302   -2.4609    0.0000 F   0  0
   -5.7359   -1.4259    0.0000 F   0  0
   -4.4625    2.7662    0.0000 C   0  0
   -3.8480    2.3075    0.0000 C   0  0
   -3.1385    2.6124    0.0000 N   0  0
   -3.0477    3.3727    0.0000 C   0  0
   -3.6705    3.8298    0.0000 C   0  0
    2.7690    0.5194    0.0000 N   0  0
    3.4369    0.8913    0.0000 O   0  0
    3.2896    1.6415    0.0000 C   0  0
    2.5307    1.7331    0.0000 N   0  0
    3.8100    2.2016    0.0000 O   0  0
 18 19  1  0
 19 20  2  0
 20 21  1  0
 21 17  2  0
 15 10  1  0
 20 22  1  0
 10 11  2  0
  6  1  1  0
  3  7  1  0
  5  8  1  0
  6  9  1  0
  1  2  2  0
  2  3  1  0
  3  4  2  0
 27 28  1  0
 28 29  1  0
 29 30  1  0
 30 31  1  0
 22 29  1  0
  4  5  1  0
  5  6  2  0
 19 23  1  0
 12 16  1  0
 23  7  1  0
 12 13  2  0
 15 17  1  0
 16 24  1  0
 17 18  1  0
 16 25  1  0
 16 26  1  0
 13 14  1  0
 11 12  1  0
 14 15  2  0
  9 32  2  0
 32 33  1  0
 33 34  1  0
 34 35  1  0
 35  9  1  0
 34 36  2  0
 27 31  1  0
M  END
>  <ID_NEW>
CPDPP3080

>  <pEC50>
8.300818115641418

$$$$

  -MTS-   10172316532D 0   0.00000     0.00000     0

 32 35  0  0  1  0  0  0  0  0999 V2000
    9.0800   -4.1050    0.0000 C   0  0  0  0  0  0  0  0  0  0  0  0
    9.5650   -4.7750    0.0000 N   0  0  0  0  0  0  0  0  0  0  0  0
   10.3510   -4.5220    0.0000 O   0  0  0  0  0  0  0  0  0  0  0  0
   10.3510   -3.6970    0.0000 C   0  0  0  0  0  0  0  0  0  0  0  0
    9.5670   -3.4410    0.0000 N   0  0  0  0  0  0  0  0  0  0  0  0
   11.0200   -3.2130    0.0000 O   0  0  0  0  0  0  0  0  0  0  0  0
    8.2530   -4.1050    0.0000 C   0  0  0  0  0  0  0  0  0  0  0  0
    6.6070   -4.1860    0.0000 C   0  0  0  0  0  0  0  0  0  0  0  0
    7.0480   -4.8800    0.0000 C   0  0  0  0  0  0  0  0  0  0  0  0
    7.8720   -4.8800    0.0000 C   0  0  0  0  0  0  0  0  0  0  0  0
    7.8010   -3.4120    0.0000 C   0  0  0  0  0  0  0  0  0  0  0  0
    6.9800   -3.4120    0.0000 C   0  0  0  0  0  0  0  0  0  0  0  0
    8.1780   -2.6780    0.0000 Cl  0  0  0  0  0  0  0  0  0  0  0  0
    5.7830   -4.1860    0.0000 O   0  0  0  0  0  0  0  0  0  0  0  0
    3.1670   -5.0960    0.0000 C   0  0  0  0  0  0  0  0  0  0  0  0
    3.9300   -5.4260    0.0000 S   0  0  0  0  0  0  0  0  0  0  0  0
    4.4800   -4.8110    0.0000 C   0  0  0  0  0  0  0  0  0  0  0  0
    4.0640   -4.0990    0.0000 C   0  0  0  0  0  0  0  0  0  0  0  0
    3.2500   -4.2730    0.0000 N   0  0  0  0  0  0  0  0  0  0  0  0
    4.3970   -3.3440    0.0000 C   0  0  0  0  0  0  0  0  0  0  0  0
    5.3000   -4.8950    0.0000 C   0  0  2  0  0  0  0  0  0  0  0  0
    2.4550   -5.5150    0.0000 C   0  0  0  0  0  0  0  0  0  0  0  0
    1.7400   -5.1040    0.0000 C   0  0  0  0  0  0  0  0  0  0  0  0
    1.0340   -5.5220    0.0000 C   0  0  0  0  0  0  0  0  0  0  0  0
    1.0340   -6.3490    0.0000 C   0  0  0  0  0  0  0  0  0  0  0  0
    1.7570   -6.7560    0.0000 C   0  0  0  0  0  0  0  0  0  0  0  0
    2.4550   -6.3360    0.0000 C   0  0  0  0  0  0  0  0  0  0  0  0
    0.3230   -6.7680    0.0000 C   0  0  0  0  0  0  0  0  0  0  0  0
   -0.3950   -6.3610    0.0000 F   0  0  0  0  0  0  0  0  0  0  0  0
    0.3230   -7.5930    0.0000 F   0  0  0  0  0  0  0  0  0  0  0  0
    0.1020   -5.9730    0.0000 F   0  0  0  0  0  0  0  0  0  0  0  0
    5.6390   -5.6470    0.0000 C   0  0  0  0  0  0  0  0  0  0  0  0
  7  1  1  0  0  0  0
  1  2  2  0  0  0  0
  2  3  1  0  0  0  0
  3  4  1  0  0  0  0
  4  5  1  0  0  0  0
  5  1  1  0  0  0  0
  4  6  2  0  0  0  0
 18 20  1  0  0  0  0
 17 21  1  0  0  0  0
 21 14  1  0  0  0  0
 15 16  1  0  0  0  0
 16 17  1  0  0  0  0
 17 18  2  0  0  0  0
 18 19  1  0  0  0  0
 19 15  2  0  0  0  0
 15 22  1  0  0  0  0
  8  9  2  0  0  0  0
  9 10  1  0  0  0  0
 10  7  2  0  0  0  0
  7 11  1  0  0  0  0
 11 12  2  0  0  0  0
 12  8  1  0  0  0  0
 11 13  1  0  0  0  0
  8 14  1  0  0  0  0
 22 23  2  0  0  0  0
 23 24  1  0  0  0  0
 24 25  2  0  0  0  0
 25 26  1  0  0  0  0
 26 27  2  0  0  0  0
 27 22  1  0  0  0  0
 25 28  1  0  0  0  0
 28 29  1  0  0  0  0
 28 30  1  0  0  0  0
 28 31  1  0  0  0  0
 21 32  1  1  0  0  0
M  END
>  <ID_NEW>
CPDPP3081

>  <pEC50>
8.298502494249371

$$$$

  SciTegic12180813022D

 37 40  0  0  0  0            999 V2000
   10.0427   -8.0716    0.0000 C   0  0
   10.4780   -8.8480    0.0000 C   0  0
   11.3706   -8.8558    0.0000 C   0  0
   11.3799   -7.3106    0.0000 C   0  0
   10.4929   -7.3064    0.0000 C   0  0
   11.8131   -8.0876    0.0000 C   0  0
   11.8282   -6.5500    0.0000 Cl  0  0
   12.6965   -8.0939    0.0000 C   0  0
   13.2100   -8.8085    0.0000 N   0  0
   14.0521   -8.5415    0.0000 O   0  0
   14.0584   -7.6580    0.0000 C   0  0
   13.2201   -7.3792    0.0000 N   0  0
   14.7767   -7.1438    0.0000 O   0  0
    9.3681   -8.1862    0.0000 O   0  0
    4.6203   -8.0011    0.0000 C   0  0
    4.1964   -8.7116    0.0000 C   0  0
    4.5997   -9.4319    0.0000 C   0  0
    5.4268   -9.4428    0.0000 C   0  0
    5.8488   -8.7275    0.0000 C   0  0
    5.4431   -8.0102    0.0000 C   0  0
    6.6738   -8.7351    0.0000 C   0  0
    7.1496   -9.4047    0.0000 N   0  0
    7.9374   -9.1569    0.0000 C   0  0
    7.9437   -8.3307    0.0000 C   0  0
    7.1597   -8.0708    0.0000 S   0  0
    8.6007   -9.6474    0.0000 C   0  0
    8.6161   -7.8471    0.0000 C   0  0
    3.3715   -8.7003    0.0000 C   0  0
    2.9491   -9.4090    0.0000 F   0  0
    2.9689   -7.9802    0.0000 F   0  0
    3.9467   -9.2916    0.0000 F   0  0
    8.5339   -7.0262    0.0000 C   0  0
    9.2037   -6.5445    0.0000 C   0  0
    9.1215   -5.7236    0.0000 C   0  0
    8.2870   -4.5688    0.0000 C   0  0
    8.3722   -5.3872    0.0000 O   0  0
    7.5337   -4.2325    0.0000 C   0  0
  1  2  2  0
  4  5  2  0
  5  1  1  0
  2  3  1  0
  3  6  2  0
  4  6  1  0
  4  7  1  0
  6  8  1  0
 14  1  1  0
  8  9  2  0
  9 10  1  0
 10 11  1  0
 11 12  1  0
 12  8  1  0
 11 13  2  0
 17 18  2  0
 19 21  1  0
 22 23  1  0
 18 19  1  0
 16 17  1  0
 19 20  2  0
 21 22  2  0
 23 24  2  0
 24 25  1  0
 25 21  1  0
 20 15  1  0
 24 27  1  0
 15 16  2  0
 23 26  1  0
 16 28  1  0
 28 29  1  0
 28 30  1  0
 28 31  1  0
 27 14  1  0
 27 32  1  0
 32 33  1  0
 33 34  1  0
 35 36  1  0
 36 34  1  0
 35 37  1  0
M  END
>  <ID_NEW>
CPDPP3082

>  <pEC50>
8.287829324402555

$$$$

  -MTS-   10172316532D 0   0.00000     0.00000     0

 36 39  0  0  1  0  0  0  0  0999 V2000
   -4.1060   -0.1920    0.0000 C   0  0  0  0  0  0  0  0  0  0  0  0
   -4.1070   -0.9270    0.0000 C   0  0  0  0  0  0  0  0  0  0  0  0
   -3.4750   -1.2990    0.0000 N   0  0  0  0  0  0  0  0  0  0  0  0
   -2.8420   -0.9270    0.0000 C   0  0  0  0  0  0  0  0  0  0  0  0
   -2.8450   -0.1880    0.0000 C   0  0  0  0  0  0  0  0  0  0  0  0
   -3.4770    0.1670    0.0000 C   0  0  0  0  0  0  0  0  0  0  0  0
   -4.7550   -1.2980    0.0000 C   0  0  0  0  0  0  0  0  0  0  0  0
   -5.3860   -0.9260    0.0000 F   0  0  0  0  0  0  0  0  0  0  0  0
   -4.7550   -2.0270    0.0000 F   0  0  0  0  0  0  0  0  0  0  0  0
   -4.9390   -0.5840    0.0000 F   0  0  0  0  0  0  0  0  0  0  0  0
   -2.2150    0.1730    0.0000 C   0  0  0  0  0  0  0  0  0  0  0  0
   -1.5320   -0.1200    0.0000 S   0  0  0  0  0  0  0  0  0  0  0  0
   -1.0440    0.4250    0.0000 C   0  0  0  0  0  0  0  0  0  0  0  0
   -1.4180    1.0630    0.0000 C   0  0  0  0  0  0  0  0  0  0  0  0
   -2.1330    0.9000    0.0000 N   0  0  0  0  0  0  0  0  0  0  0  0
   -1.1270    1.7380    0.0000 C   0  0  0  0  0  0  0  0  0  0  0  0
   -0.3150    0.3540    0.0000 C   0  0  2  0  0  0  0  0  0  0  0  0
   -0.0190   -0.3110    0.0000 O   0  0  0  0  0  0  0  0  0  0  0  0
    0.1090    0.9440    0.0000 C   0  0  0  0  0  0  0  0  0  0  0  0
    0.5460    1.5360    0.0000 F   0  0  0  0  0  0  0  0  0  0  0  0
   -0.1840    1.6130    0.0000 F   0  0  0  0  0  0  0  0  0  0  0  0
    0.7430    0.8380    0.0000 F   0  0  0  0  0  0  0  0  0  0  0  0
    1.3610    0.4630    0.0000 C   0  0  0  0  0  0  0  0  0  0  0  0
    1.3600   -0.3230    0.0000 C   0  0  0  0  0  0  0  0  0  0  0  0
    2.0330   -0.7110    0.0000 C   0  0  0  0  0  0  0  0  0  0  0  0
    2.7120   -0.3230    0.0000 C   0  0  0  0  0  0  0  0  0  0  0  0
    2.7090    0.4660    0.0000 C   0  0  0  0  0  0  0  0  0  0  0  0
    2.0310    0.8590    0.0000 C   0  0  0  0  0  0  0  0  0  0  0  0
    3.3930    0.8610    0.0000 C   0  0  0  0  0  0  0  0  0  0  0  0
    0.6720   -0.7110    0.0000 C   0  0  0  0  0  0  0  0  0  0  0  0
    2.0250    1.6410    0.0000 F   0  0  0  0  0  0  0  0  0  0  0  0
    4.1040    0.5530    0.0000 N   0  0  0  0  0  0  0  0  0  0  0  0
    4.6300    1.1360    0.0000 O   0  0  0  0  0  0  0  0  0  0  0  0
    4.2440    1.8160    0.0000 C   0  0  0  0  0  0  0  0  0  0  0  0
    3.4650    1.6500    0.0000 N   0  0  0  0  0  0  0  0  0  0  0  0
    4.4370    2.5670    0.0000 O   0  0  0  0  0  0  0  0  0  0  0  0
 14 16  1  0  0  0  0
 13 17  1  0  0  0  0
 17 18  1  0  0  0  0
 17 19  1  1  0  0  0
  1  2  2  0  0  0  0
 19 20  1  0  0  0  0
  2  7  1  0  0  0  0
 19 21  1  0  0  0  0
  3  4  2  0  0  0  0
 19 22  1  0  0  0  0
  7  8  1  0  0  0  0
  7  9  1  0  0  0  0
  4  5  1  0  0  0  0
  7 10  1  0  0  0  0
  2  3  1  0  0  0  0
  5 11  1  0  0  0  0
  5  6  2  0  0  0  0
  6  1  1  0  0  0  0
 11 12  1  0  0  0  0
 23 24  2  0  0  0  0
 24 25  1  0  0  0  0
 25 26  2  0  0  0  0
 26 27  1  0  0  0  0
 27 28  2  0  0  0  0
 28 23  1  0  0  0  0
 27 29  1  0  0  0  0
 24 30  1  0  0  0  0
 30 18  1  0  0  0  0
 28 31  1  0  0  0  0
 29 32  2  0  0  0  0
 12 13  1  0  0  0  0
 13 14  2  0  0  0  0
 14 15  1  0  0  0  0
 32 33  1  0  0  0  0
 33 34  1  0  0  0  0
 34 35  1  0  0  0  0
 35 29  1  0  0  0  0
 15 11  2  0  0  0  0
 34 36  2  0  0  0  0
M  END
>  <ID_NEW>
CPDPP3083

>  <pEC50>
8.283833061377356

$$$$

  -MTS-   10172316532D 0   0.00000     0.00000     0

 36 39  0  0  1  0  0  0  0  0999 V2000
    1.6720    0.5140    0.0000 C   0  0  0  0  0  0  0  0  0  0  0  0
    1.6710   -0.3090    0.0000 C   0  0  0  0  0  0  0  0  0  0  0  0
    2.3860   -0.7260    0.0000 C   0  0  0  0  0  0  0  0  0  0  0  0
    3.1110   -0.3090    0.0000 C   0  0  0  0  0  0  0  0  0  0  0  0
    3.1040    0.5220    0.0000 C   0  0  0  0  0  0  0  0  0  0  0  0
    2.3840    0.9310    0.0000 C   0  0  0  0  0  0  0  0  0  0  0  0
    0.9520   -0.7210    0.0000 C   0  0  0  0  0  0  0  0  0  0  0  0
    3.8300   -0.7240    0.0000 F   0  0  0  0  0  0  0  0  0  0  0  0
    3.8250    0.9280    0.0000 C   0  0  0  0  0  0  0  0  0  0  0  0
    0.2320   -0.3110    0.0000 O   0  0  0  0  0  0  0  0  0  0  0  0
   -3.9600   -2.5830    0.0000 C   0  0  0  0  0  0  0  0  0  0  0  0
   -3.9610   -3.4110    0.0000 C   0  0  0  0  0  0  0  0  0  0  0  0
   -3.2500   -3.8280    0.0000 C   0  0  0  0  0  0  0  0  0  0  0  0
   -2.5250   -3.4100    0.0000 C   0  0  0  0  0  0  0  0  0  0  0  0
   -2.5280   -2.5800    0.0000 C   0  0  0  0  0  0  0  0  0  0  0  0
   -3.2520   -2.1700    0.0000 C   0  0  0  0  0  0  0  0  0  0  0  0
   -1.8110   -2.1680    0.0000 C   0  0  0  0  0  0  0  0  0  0  0  0
   -1.0480   -2.4970    0.0000 N   0  0  0  0  0  0  0  0  0  0  0  0
   -0.4970   -1.8680    0.0000 C   0  0  0  0  0  0  0  0  0  0  0  0
   -0.9140   -1.1590    0.0000 C   0  0  0  0  0  0  0  0  0  0  0  0
   -1.7330   -1.3450    0.0000 S   0  0  0  0  0  0  0  0  0  0  0  0
    0.3240   -1.9590    0.0000 C   0  0  0  0  0  0  0  0  0  0  0  0
   -0.5920   -0.4000    0.0000 C   0  0  1  0  0  0  0  0  0  0  0  0
   -4.6760   -3.8270    0.0000 C   0  0  0  0  0  0  0  0  0  0  0  0
   -4.6760   -4.6520    0.0000 F   0  0  0  0  0  0  0  0  0  0  0  0
   -5.3900   -3.4050    0.0000 F   0  0  0  0  0  0  0  0  0  0  0  0
   -3.8750   -4.0320    0.0000 F   0  0  0  0  0  0  0  0  0  0  0  0
   -1.0900    0.2590    0.0000 C   0  0  0  0  0  0  0  0  0  0  0  0
   -0.7610    1.0240    0.0000 F   0  0  0  0  0  0  0  0  0  0  0  0
   -1.9100    0.1710    0.0000 F   0  0  0  0  0  0  0  0  0  0  0  0
   -1.6710    0.8500    0.0000 F   0  0  0  0  0  0  0  0  0  0  0  0
    4.5910    0.5960    0.0000 N   0  0  0  0  0  0  0  0  0  0  0  0
    5.1360    1.2160    0.0000 O   0  0  0  0  0  0  0  0  0  0  0  0
    4.7290    1.9290    0.0000 C   0  0  0  0  0  0  0  0  0  0  0  0
    3.9150    1.7540    0.0000 N   0  0  0  0  0  0  0  0  0  0  0  0
    5.1370    2.6540    0.0000 O   0  0  0  0  0  0  0  0  0  0  0  0
  2  7  1  0  0  0  0
  3  4  2  0  0  0  0
  4  8  1  0  0  0  0
  4  5  1  0  0  0  0
  5  9  1  0  0  0  0
  2  3  1  0  0  0  0
 19 20  2  0  0  0  0
 20 21  1  0  0  0  0
 21 17  1  0  0  0  0
 16 11  1  0  0  0  0
 20 23  1  0  0  0  0
 11 12  2  0  0  0  0
 19 22  1  0  0  0  0
 12 24  1  0  0  0  0
 24 25  1  0  0  0  0
 24 26  1  0  0  0  0
 24 27  1  0  0  0  0
 23 10  1  0  0  0  0
 13 14  2  0  0  0  0
 15 17  1  0  0  0  0
 18 19  1  0  0  0  0
 14 15  1  0  0  0  0
 23 28  1  1  0  0  0
 12 13  1  0  0  0  0
 28 29  1  0  0  0  0
 15 16  2  0  0  0  0
 28 30  1  0  0  0  0
 17 18  2  0  0  0  0
 28 31  1  0  0  0  0
  9 32  2  0  0  0  0
  7 10  1  0  0  0  0
  5  6  2  0  0  0  0
  6  1  1  0  0  0  0
 32 33  1  0  0  0  0
 33 34  1  0  0  0  0
 34 35  1  0  0  0  0
 35  9  1  0  0  0  0
  1  2  2  0  0  0  0
 34 36  2  0  0  0  0
M  END
>  <ID_NEW>
CPDPP3084

>  <pEC50>
8.260889328116521

$$$$

  SciTegic12180813552D

 36 40  0  0  0  0            999 V2000
   -0.0933   -4.2963    0.0000 C   0  0
   -0.8297   -4.7867    0.0000 N   0  0
   -0.5852   -5.6414    0.0000 O   0  0
    0.3032   -5.6730    0.0000 C   0  0
    0.6077   -4.8378    0.0000 N   0  0
    0.8000   -6.4101    0.0000 O   0  0
   -0.1131   -1.6270    0.0000 C   0  0
   -0.8801   -2.0770    0.0000 C   0  0
   -0.8740   -2.9662    0.0000 C   0  0
   -0.1016   -3.4063    0.0000 C   0  0
    0.6670   -2.9473    0.0000 C   0  0
    0.6566   -2.0636    0.0000 C   0  0
    1.4392   -3.3835    0.0000 Cl  0  0
   -0.1204   -0.7425    0.0000 S   0  0
    0.7643   -0.7346    0.0000 O   0  0
   -1.0050   -0.7528    0.0000 O   0  0
   -4.4030    2.5583    0.0000 C   0  0
   -4.4042    1.7310    0.0000 N   0  0
   -3.6893    1.3181    0.0000 C   0  0
   -2.9729    1.7314    0.0000 C   0  0
   -2.9758    2.5620    0.0000 C   0  0
   -3.6911    2.9711    0.0000 C   0  0
   -5.1176    2.9707    0.0000 C   0  0
   -5.1178    3.7959    0.0000 F   0  0
   -5.8319    2.5580    0.0000 F   0  0
   -4.5343    3.5624    0.0000 F   0  0
   -2.2598    1.3166    0.0000 C   0  0
   -2.2610    0.4892    0.0000 C   0  0
   -1.5420    0.0764    0.0000 C   0  0
   -1.5438    1.7252    0.0000 C   0  0
   -0.8334    1.3167    0.0000 C   0  0
   -0.8319    0.4896    0.0000 C   0  0
   -0.1188    0.0796    0.0000 N   0  0
    0.5974    0.4922    0.0000 C   0  0
    0.5959    1.3193    0.0000 C   0  0
   -0.1218    1.7339    0.0000 C   0  0
 14 16  2  0
 17 18  2  0
 18 19  1  0
 19 20  2  0
 20 21  1  0
 21 22  2  0
 22 17  1  0
 17 23  1  0
 23 24  1  0
 23 25  1  0
 23 26  1  0
 29 32  2  0
 27 28  2  0
 31 30  2  0
 30 27  1  0
 28 29  1  0
 27 20  1  0
 31 32  1  0
 31 36  1  0
 32 33  1  0
 33 34  1  0
 34 35  1  0
 35 36  1  0
 33 14  1  0
 10  1  1  0
  1  2  2  0
  2  3  1  0
  3  4  1  0
  4  5  1  0
  5  1  1  0
  4  6  2  0
  7  8  2  0
  8  9  1  0
  9 10  2  0
 10 11  1  0
 11 12  2  0
 12  7  1  0
 11 13  1  0
  7 14  1  0
 14 15  2  0
M  END
>  <ID_NEW>
CPDPP3085

>  <pEC50>
8.259485745893791

$$$$

  -MTS-   10172316532D 0   0.00000     0.00000     0

 38 41  0  0  1  0  0  0  0  0999 V2000
   -1.6750    2.7480    0.0000 C   0  0  0  0  0  0  0  0  0  0  0  0
   -2.3230    2.3780    0.0000 C   0  0  0  0  0  0  0  0  0  0  0  0
   -1.6530    3.5110    0.0000 O   0  0  0  0  0  0  0  0  0  0  0  0
   -2.9790    2.7610    0.0000 C   0  0  0  0  0  0  0  0  0  0  0  0
   -3.6430    2.3750    0.0000 C   0  0  0  0  0  0  0  0  0  0  0  0
   -3.6450    1.6240    0.0000 C   0  0  0  0  0  0  0  0  0  0  0  0
   -2.9760    1.2400    0.0000 C   0  0  0  0  0  0  0  0  0  0  0  0
   -2.3350    1.6240    0.0000 C   0  0  0  0  0  0  0  0  0  0  0  0
   -1.6730    1.2360    0.0000 O   0  0  0  0  0  0  0  0  0  0  0  0
   -1.6820    0.4690    0.0000 C   0  0  0  0  0  0  0  0  0  0  0  0
   -1.0280    0.0970    0.0000 C   0  0  0  0  0  0  0  0  0  0  0  0
   -4.3130    1.2410    0.0000 C   0  0  0  0  0  0  0  0  0  0  0  0
   -4.9730    0.8610    0.0000 F   0  0  0  0  0  0  0  0  0  0  0  0
   -4.6840    1.9050    0.0000 F   0  0  0  0  0  0  0  0  0  0  0  0
   -3.9230    0.5810    0.0000 F   0  0  0  0  0  0  0  0  0  0  0  0
    4.1350    3.0360    0.0000 C   0  0  0  0  0  0  0  0  0  0  0  0
    4.1470    2.2920    0.0000 S   0  0  0  0  0  0  0  0  0  0  0  0
    4.8470    3.2750    0.0000 N   0  0  0  0  0  0  0  0  0  0  0  0
    5.2890    2.6860    0.0000 N   0  0  0  0  0  0  0  0  0  0  0  0
    4.8630    2.0780    0.0000 C   0  0  0  0  0  0  0  0  0  0  0  0
    5.1070    1.3700    0.0000 C   0  0  0  0  0  0  0  0  0  0  0  0
    4.6260    0.8070    0.0000 C   0  0  0  0  0  0  0  0  0  0  0  0
    5.8430    1.2380    0.0000 C   0  0  0  0  0  0  0  0  0  0  0  0
    3.4800    3.4110    0.0000 N   0  0  0  0  0  0  0  0  0  0  0  0
    2.8390    3.0320    0.0000 S   0  0  0  0  0  0  0  0  0  0  0  0
    2.1970    2.6490    0.0000 C   0  0  0  0  0  0  0  0  0  0  0  0
    2.4550    3.6730    0.0000 O   0  0  0  0  0  0  0  0  0  0  0  0
    3.2090    2.3780    0.0000 O   0  0  0  0  0  0  0  0  0  0  0  0
   -0.9900    2.2840    0.0000 N   0  0  0  0  0  0  0  0  0  0  0  0
    2.1980    1.9050    0.0000 C   0  0  0  0  0  0  0  0  0  0  0  0
    1.5300    3.0090    0.0000 C   0  0  0  0  0  0  0  0  0  0  0  0
    1.5310    1.5350    0.0000 C   0  0  0  0  0  0  0  0  0  0  0  0
    0.8960    1.9050    0.0000 C   0  0  0  0  0  0  0  0  0  0  0  0
    0.8980    2.6480    0.0000 C   0  0  0  0  0  0  0  0  0  0  0  0
    0.1790    2.8780    0.0000 C   0  0  0  0  0  0  0  0  0  0  0  0
   -0.2570    2.2780    0.0000 C   0  0  1  0  0  0  0  0  0  0  0  0
    0.1880    1.6750    0.0000 C   0  0  0  0  0  0  0  0  0  0  0  0
    2.8410    1.5360    0.0000 Cl  0  0  0  0  0  0  0  0  0  0  0  0
 25 24  1  0  0  0  0
 30 26  2  0  0  0  0
 26 31  1  0  0  0  0
 31 34  2  0  0  0  0
 33 32  2  0  0  0  0
 32 30  1  0  0  0  0
 33 34  1  0  0  0  0
 34 35  1  0  0  0  0
 35 36  1  0  0  0  0
 36 37  1  0  0  0  0
 37 33  1  0  0  0  0
 36 29  1  1  0  0  0
 30 38  1  0  0  0  0
 25 28  2  0  0  0  0
 26 25  1  0  0  0  0
 25 27  2  0  0  0  0
 17 20  1  0  0  0  0
 19 18  1  0  0  0  0
 18 16  2  0  0  0  0
 19 20  2  0  0  0  0
 20 21  1  0  0  0  0
 21 22  1  0  0  0  0
 21 23  1  0  0  0  0
 24 16  1  0  0  0  0
 16 17  1  0  0  0  0
 29  1  1  0  0  0  0
  1  2  1  0  0  0  0
  1  3  2  0  0  0  0
  2  4  2  0  0  0  0
  4  5  1  0  0  0  0
  5  6  2  0  0  0  0
  6  7  1  0  0  0  0
  7  8  2  0  0  0  0
  8  2  1  0  0  0  0
  8  9  1  0  0  0  0
  9 10  1  0  0  0  0
 10 11  1  0  0  0  0
  6 12  1  0  0  0  0
 12 13  1  0  0  0  0
 12 14  1  0  0  0  0
 12 15  1  0  0  0  0
M  END
>  <ID_NEW>
CPDPP3086

>  <pEC50>
8.236262636086613

$$$$

  SciTegic12180812582D

 37 41  0  0  0  0            999 V2000
    0.9510    1.4679    0.0000 C   0  0
    0.1965    1.3165    0.0000 C   0  0
   -0.0477    0.5876    0.0000 C   0  0
    0.4584    0.0101    0.0000 C   0  0
    1.2128    0.1616    0.0000 C   0  0
    1.4612    0.8905    0.0000 C   0  0
   -0.7979    0.4404    0.0000 O   0  0
    1.7189   -0.4158    0.0000 Cl  0  0
    2.2114    1.0378    0.0000 C   0  0
   -4.4061   -0.1331    0.0000 C   0  0
   -4.9257   -0.6975    0.0000 C   0  0
   -4.6959   -1.4298    0.0000 C   0  0
   -3.9465   -1.6021    0.0000 C   0  0
   -3.4270   -1.0336    0.0000 C   0  0
   -3.6567   -0.3012    0.0000 C   0  0
   -5.2198   -1.9942    0.0000 C   0  0
   -3.1369    0.2589    0.0000 C   0  0
   -2.3725    0.1706    0.0000 S   0  0
   -2.0501    0.8705    0.0000 C   0  0
   -2.6149    1.3883    0.0000 C   0  0
   -3.2856    1.0133    0.0000 N   0  0
   -2.5241    2.1530    0.0000 C   0  0
   -1.3040    1.0178    0.0000 C   0  0
   -4.8123   -2.6417    0.0000 F   0  0
   -5.8303   -2.4609    0.0000 F   0  0
   -5.7360   -1.4259    0.0000 F   0  0
   -4.4626    2.7662    0.0000 C   0  0
   -3.8480    2.3075    0.0000 C   0  0
   -3.1386    2.6124    0.0000 N   0  0
   -3.0477    3.3727    0.0000 C   0  0
   -3.6706    3.8298    0.0000 C   0  0
   -4.3717    3.5265    0.0000 C   0  0
    2.7718    0.5225    0.0000 N   0  0
    3.4398    0.8944    0.0000 O   0  0
    3.2925    1.6446    0.0000 C   0  0
    2.5335    1.7362    0.0000 N   0  0
    3.8128    2.2048    0.0000 O   0  0
 18 19  1  0
 19 20  2  0
 20 21  1  0
 21 17  2  0
 15 10  1  0
 20 22  1  0
 10 11  2  0
  6  1  1  0
  3  7  1  0
  5  8  1  0
  6  9  1  0
  1  2  2  0
  2  3  1  0
  3  4  2  0
 27 28  1  0
 27 32  1  0
 28 29  1  0
 29 30  1  0
 30 31  1  0
 31 32  1  0
 22 29  1  0
  4  5  1  0
  5  6  2  0
 19 23  1  0
 12 16  1  0
 23  7  1  0
 12 13  2  0
 15 17  1  0
 16 24  1  0
 17 18  1  0
 16 25  1  0
 16 26  1  0
 13 14  1  0
 11 12  1  0
 14 15  2  0
  9 33  2  0
 33 34  1  0
 34 35  1  0
 35 36  1  0
 36  9  1  0
 35 37  2  0
M  END
>  <ID_NEW>
CPDPP3087

>  <pEC50>
8.233521410502693

$$$$

  SciTegic12180813072D

 34 37  0  0  0  0            999 V2000
    1.6586   -5.5702    0.0000 C   0  0
    1.1406   -4.8414    0.0000 C   0  0
    1.5158   -4.0336    0.0000 C   0  0
    2.4005   -3.9492    0.0000 C   0  0
    2.9169   -4.6829    0.0000 C   0  0
    2.5425   -5.4853    0.0000 C   0  0
    0.3021   -5.1525    0.0000 C   0  0
   -0.2178   -4.4333    0.0000 F   0  0
   -0.2700   -5.8441    0.0000 F   0  0
    0.3855   -6.0485    0.0000 F   0  0
    4.0038   -3.5179    0.0000 N   0  0
    5.2036   -4.3227    0.0000 C   0  0
    4.5013   -4.8741    0.0000 S   0  0
    5.0457   -2.6078    0.0000 C   0  0
    5.8785   -2.2985    0.0000 C   0  0
    6.0280   -1.4214    0.0000 C   0  0
    6.8608   -1.1121    0.0000 C   0  0
    3.8135   -4.3136    0.0000 C   0  0
    4.8918   -3.4931    0.0000 C   0  0
    6.0131   -4.7005    0.0000 C   0  0
    6.7405   -4.1849    0.0000 O   0  0
    7.9749   -4.8889    0.0000 N   0  0
    8.7981   -4.8901    0.0000 C   0  0
    9.2089   -4.1789    0.0000 C   0  0
    8.7976   -3.4660    0.0000 C   0  0
    7.9713   -3.4689    0.0000 C   0  0
    7.5642   -4.1807    0.0000 C   0  0
    9.2101   -5.6049    0.0000 C   0  0
   10.0339   -4.1791    0.0000 C   0  0
   10.5219   -4.8434    0.0000 N   0  0
   11.3066   -4.5887    0.0000 O   0  0
   11.3068   -3.7636    0.0000 C   0  0
   10.5222   -3.5086    0.0000 N   0  0
   12.0167   -3.3458    0.0000 O   0  0
 11 19  1  0
 12 13  1  0
 19 14  1  0
 14 15  1  0
 15 16  1  0
 16 17  1  0
 13 18  1  0
 12 19  2  0
 12 20  1  0
 20 21  1  0
  5  6  2  0
  2  7  1  0
  6  1  1  0
  7  8  1  0
  1  2  2  0
  5 18  1  0
  3  4  2  0
  4  5  1  0
 23 24  1  0
 26 27  2  0
 27 22  1  0
 22 23  2  0
 27 21  1  0
 24 25  2  0
 23 28  1  0
 24 29  1  0
 25 26  1  0
 29 30  2  0
  2  3  1  0
  7  9  1  0
  7 10  1  0
 30 31  1  0
 31 32  1  0
 32 33  1  0
 33 29  1  0
 18 11  2  0
 32 34  2  0
M  END
>  <ID_NEW>
CPDPP3088

>  <pEC50>
8.215538472167603

$$$$

  SciTegic12180813092D

 37 40  0  0  0  0            999 V2000
    3.3750    1.7226    0.0000 C   0  0
    3.9932    1.8059    0.0000 S   0  0
    3.2651    1.1176    0.0000 N   0  0
    3.8137    0.8222    0.0000 N   0  0
    4.2585    1.2502    0.0000 C   0  0
    4.8784    1.1423    0.0000 C   0  0
    5.2825    1.6147    0.0000 C   0  0
    5.0938    0.5589    0.0000 C   0  0
    2.9104    2.1261    0.0000 N   0  0
    1.1436    2.1281    0.0000 C   0  0
    2.0254    2.1290    0.0000 S   0  0
    2.0078    3.0841    0.0000 O   0  0
    2.0286    1.2444    0.0000 O   0  0
    0.7041    1.3618    0.0000 C   0  0
    0.7039    2.8903    0.0000 C   0  0
   -0.1847    2.8886    0.0000 C   0  0
   -0.6285    2.1250    0.0000 C   0  0
   -0.1871    1.3594    0.0000 C   0  0
   -1.5126    2.1262    0.0000 C   0  0
   -0.8909    2.7564    0.0000 C   0  0
   -1.1188    3.5939    0.0000 C   0  0
   -1.9770    3.8299    0.0000 C   0  0
   -2.5996    3.2075    0.0000 C   0  0
   -2.3630    2.3540    0.0000 C   0  0
   -2.0701    1.4437    0.0000 C   0  0
   -2.9428    1.5801    0.0000 N   0  0
   -3.4915    0.8899    0.0000 C   0  0
   -3.1674    0.0659    0.0000 N   0  0
   -3.7191   -0.6242    0.0000 C   0  0
   -4.5894   -0.4930    0.0000 C   0  0
   -4.9146    0.3286    0.0000 C   0  0
   -4.3665    1.0202    0.0000 C   0  0
   -4.6970    1.8421    0.0000 Cl  0  0
   -5.1316   -1.1896    0.0000 C   0  0
   -5.6803   -1.8867    0.0000 F   0  0
   -4.4314   -1.7369    0.0000 F   0  0
   -5.8313   -0.6451    0.0000 F   0  0
 27 28  2  0
 28 29  1  0
 29 30  2  0
 30 31  1  0
 31 32  2  0
 32 27  1  0
 32 33  1  0
 34 35  1  0
 34 36  1  0
 34 37  1  0
 30 34  1  0
 10 11  1  0
 11 12  2  0
 11  9  1  0
 11 13  2  0
 14 10  2  0
 10 15  1  0
 15 16  2  0
 16 17  1  0
 17 18  2  0
 18 14  1  0
 19 20  1  0
 19 24  1  0
 20 21  1  0
 21 22  1  0
 22 23  1  0
  2  5  1  0
  4  3  1  0
  3  1  2  0
  4  5  2  0
  5  6  1  0
  6  7  1  0
  6  8  1  0
  9  1  1  0
  1  2  1  0
 23 24  1  0
 17 19  1  0
 19 25  1  0
 25 26  1  0
 26 27  1  0
M  END
>  <ID_NEW>
CPDPP3089

>  <pEC50>
8.199086040956738

$$$$

  SciTegic12180813042D

 29 31  0  0  0  0            999 V2000
   -2.3221    2.8934    0.0000 C   0  0
   -1.7518    3.2582    0.0000 S   0  0
   -1.3856    2.6887    0.0000 O   0  0
   -2.1181    3.8314    0.0000 O   0  0
   -1.1798    3.6276    0.0000 N   0  0
   -4.6664    2.1987    0.0000 C   0  0
   -4.0780    1.8622    0.0000 C   0  0
   -3.4916    2.2049    0.0000 C   0  0
   -2.9025    1.8672    0.0000 C   0  0
   -2.3165    2.2134    0.0000 C   0  0
   -2.9155    3.2255    0.0000 C   0  0
   -3.4985    2.8811    0.0000 C   0  0
   -0.5744    3.3186    0.0000 C   0  0
   -0.4737    2.6455    0.0000 S   0  0
    0.1992    2.5403    0.0000 C   0  0
    0.5082    3.1456    0.0000 N   0  0
    0.0256    3.6257    0.0000 N   0  0
    0.5060    1.9338    0.0000 C   0  0
    0.1348    1.3634    0.0000 C   0  0
    1.1840    1.8977    0.0000 C   0  0
   -5.8269    0.1551    0.0000 C   0  0
   -5.2397   -0.1857    0.0000 C   0  0
   -5.2468    1.1727    0.0000 C   0  0
   -5.8313    0.8309    0.0000 N   0  0
   -4.6549    0.8381    0.0000 C   0  0
   -4.6543    0.1538    0.0000 C   0  0
   -5.2529    1.8518    0.0000 N   0  0
   -4.0684    1.1806    0.0000 Cl  0  0
   -5.2399   -0.8648    0.0000 Cl  0  0
  9 10  1  0
 10  1  2  0
  1 11  1  0
 11 12  2  0
 12  8  1  0
  5 13  1  0
 13 14  1  0
 14 15  1  0
 15 16  2  0
 16 17  1  0
 17 13  2  0
 15 18  1  0
 18 19  1  0
 18 20  1  0
  1  2  1  0
  2  3  2  0
  2  4  2  0
  2  5  1  0
 21 22  2  0
 22 26  1  0
 25 23  1  0
 23 24  2  0
 24 21  1  0
 25 26  2  0
 23 27  1  0
 27  6  1  0
  6  7  1  0
  7  8  1  0
  8  9  2  0
 25 28  1  0
 22 29  1  0
M  END
>  <ID_NEW>
CPDPP3090

>  <pEC50>
8.197078409706831

$$$$

  -MTS-   10172316532D 0   0.00000     0.00000     0

 34 37  0  0  1  0  0  0  0  0999 V2000
   -1.1710   -1.4590    0.0000 C   0  0  0  0  0  0  0  0  0  0  0  0
   -0.5240   -1.0860    0.0000 C   0  0  1  0  0  0  0  0  0  0  0  0
   -0.5150   -0.3410    0.0000 N   0  0  0  0  0  0  0  0  0  0  0  0
   -1.1700    0.0410    0.0000 C   0  0  1  0  0  0  0  0  0  0  0  0
   -1.8130   -0.3320    0.0000 C   0  0  0  0  0  0  0  0  0  0  0  0
   -1.8200   -1.0870    0.0000 N   0  0  0  0  0  0  0  0  0  0  0  0
    0.1220   -1.4600    0.0000 C   0  0  0  0  0  0  0  0  0  0  0  0
   -1.1540    0.7830    0.0000 C   0  0  0  0  0  0  0  0  0  0  0  0
   -5.0540   -2.2390    0.0000 C   0  0  0  0  0  0  0  0  0  0  0  0
   -5.0610   -1.4890    0.0000 F   0  0  0  0  0  0  0  0  0  0  0  0
   -5.7080   -2.6110    0.0000 F   0  0  0  0  0  0  0  0  0  0  0  0
   -5.7070   -1.8520    0.0000 F   0  0  0  0  0  0  0  0  0  0  0  0
   -2.4540   -1.4720    0.0000 C   0  0  0  0  0  0  0  0  0  0  0  0
   -3.1050   -1.0870    0.0000 C   0  0  0  0  0  0  0  0  0  0  0  0
   -3.7550   -1.4720    0.0000 C   0  0  0  0  0  0  0  0  0  0  0  0
   -3.7570   -2.2230    0.0000 C   0  0  0  0  0  0  0  0  0  0  0  0
   -3.0900   -2.5870    0.0000 C   0  0  0  0  0  0  0  0  0  0  0  0
   -2.4430   -2.2240    0.0000 C   0  0  0  0  0  0  0  0  0  0  0  0
   -4.4070   -2.6020    0.0000 O   0  0  0  0  0  0  0  0  0  0  0  0
    0.1150    0.0570    0.0000 S   0  0  0  0  0  0  0  0  0  0  0  0
    1.4110    0.0600    0.0000 C   0  0  0  0  0  0  0  0  0  0  0  0
    2.0650    0.4340    0.0000 C   0  0  0  0  0  0  0  0  0  0  0  0
    2.0630    1.1840    0.0000 C   0  0  0  0  0  0  0  0  0  0  0  0
    0.7590    0.4210    0.0000 C   0  0  0  0  0  0  0  0  0  0  0  0
    0.7610    1.1700    0.0000 C   0  0  0  0  0  0  0  0  0  0  0  0
    1.4090    1.5510    0.0000 C   0  0  0  0  0  0  0  0  0  0  0  0
    1.2480    2.2930    0.0000 C   0  0  0  0  0  0  0  0  0  0  0  0
    0.4980    2.3660    0.0000 C   0  0  1  0  0  0  0  0  0  0  0  0
    0.1940    1.6780    0.0000 C   0  0  0  0  0  0  0  0  0  0  0  0
    0.1240    3.0120    0.0000 C   0  0  0  0  0  0  0  0  0  0  0  0
    0.4970    3.6720    0.0000 O   0  0  0  0  0  0  0  0  0  0  0  0
   -0.6260    3.0090    0.0000 O   0  0  0  0  0  0  0  0  0  0  0  0
    0.5120   -0.5800    0.0000 O   0  0  0  0  0  0  0  0  0  0  0  0
   -0.2850    0.6760    0.0000 O   0  0  0  0  0  0  0  0  0  0  0  0
  4  5  1  0  0  0  0
  5  6  1  0  0  0  0
  2  7  1  1  0  0  0
  4  8  1  1  0  0  0
  1  2  1  0  0  0  0
  1  6  1  0  0  0  0
  2  3  1  0  0  0  0
  3  4  1  0  0  0  0
 13 14  2  0  0  0  0
 14 15  1  0  0  0  0
 15 16  2  0  0  0  0
 16 17  1  0  0  0  0
 17 18  2  0  0  0  0
 18 13  1  0  0  0  0
 16 19  1  0  0  0  0
 19  9  1  0  0  0  0
  9 10  1  0  0  0  0
  9 11  1  0  0  0  0
  9 12  1  0  0  0  0
  6 13  1  0  0  0  0
 25 24  2  0  0  0  0
 24 21  1  0  0  0  0
 25 26  1  0  0  0  0
 26 27  1  0  0  0  0
 27 28  1  0  0  0  0
 28 29  1  0  0  0  0
 29 25  1  0  0  0  0
 28 30  1  1  0  0  0
 30 31  1  0  0  0  0
 30 32  2  0  0  0  0
 21 22  2  0  0  0  0
 22 23  1  0  0  0  0
 23 26  2  0  0  0  0
 24 20  1  0  0  0  0
 20 33  2  0  0  0  0
 20  3  1  0  0  0  0
 20 34  2  0  0  0  0
M  END
>  <ID_NEW>
CPDPP3091

>  <pEC50>
8.186169921119681

$$$$

  SciTegic12180812322D

 33 36  0  0  0  0            999 V2000
    3.7426    0.7769    0.0000 C   0  0
    4.2276    0.1121    0.0000 N   0  0
    5.0127    0.3658    0.0000 O   0  0
    5.0140    1.1907    0.0000 C   0  0
    4.2299    1.4468    0.0000 N   0  0
    5.6822    1.6746    0.0000 O   0  0
    2.9189    0.7423    0.0000 C   0  0
    1.2742    0.6652    0.0000 C   0  0
    1.7159   -0.0292    0.0000 C   0  0
    2.5392    0.0088    0.0000 C   0  0
    2.4690    1.4390    0.0000 C   0  0
    1.6472    1.3975    0.0000 C   0  0
    2.8452    2.1732    0.0000 Cl  0  0
    0.4508    0.6814    0.0000 O   0  0
   -1.2566    0.9132    0.0000 S   0  0
   -0.7028    1.5247    0.0000 C   0  0
   -1.1132    2.2405    0.0000 C   0  0
   -1.9206    2.0712    0.0000 N   0  0
   -0.7755    2.9932    0.0000 C   0  0
    0.0452    3.0771    0.0000 O   0  0
    0.3830    3.8298    0.0000 C   0  0
    0.1175    1.4361    0.0000 C   0  0
   -4.2980   -0.0862    0.0000 C   0  0
   -4.2980    0.7996    0.0000 C   0  0
   -3.5276   -0.5270    0.0000 N   0  0
   -5.0589   -0.5353    0.0000 C   0  0
   -3.5276    1.2404    0.0000 C   0  0
   -2.7695   -0.0862    0.0000 C   0  0
   -5.5219   -1.2895    0.0000 F   0  0
   -4.6309   -1.3103    0.0000 F   0  0
   -5.8306   -0.1076    0.0000 F   0  0
   -2.7695    0.7996    0.0000 C   0  0
   -2.0065    1.2529    0.0000 C   0  0
  1  2  2  0
  2  3  1  0
  3  4  1  0
  4  5  1  0
  5  1  1  0
  4  6  2  0
  7  1  1  0
 33 15  1  0
 15 16  1  0
 16 17  2  0
 17 18  1  0
 23 24  1  0
 23 25  2  0
 23 26  1  0
 24 27  2  0
 25 28  1  0
 26 29  1  0
 26 30  1  0
 26 31  1  0
 27 32  1  0
 32 33  1  0
 28 32  2  0
 18 33  2  0
 17 19  1  0
 19 20  1  0
 20 21  1  0
 16 22  1  0
 22 14  1  0
 14  8  1  0
  8  9  2  0
  9 10  1  0
 10  7  2  0
  7 11  1  0
 11 12  2  0
 12  8  1  0
 11 13  1  0
M  END
>  <ID_NEW>
CPDPP3092

>  <pEC50>
8.159692350427212

$$$$

  SciTegic12180813082D

 38 41  0  0  0  0            999 V2000
   -1.6989    1.5378    0.0000 C   0  0
   -2.5255    1.5387    0.0000 C   0  0
   -2.9391    2.2541    0.0000 C   0  0
   -3.7691    2.2506    0.0000 C   0  0
   -4.1812    1.5382    0.0000 C   0  0
   -3.7689    0.8239    0.0000 C   0  0
   -2.9414    0.8225    0.0000 C   0  0
   -1.2835    0.8283    0.0000 O   0  0
   -2.5192    2.9738    0.0000 O   0  0
   -2.9334    3.6964    0.0000 C   0  0
   -3.7621    3.6994    0.0000 C   0  0
   -5.0045    1.5385    0.0000 C   0  0
   -5.8292    1.5417    0.0000 F   0  0
   -5.0075    2.3653    0.0000 F   0  0
   -5.0044    0.7162    0.0000 F   0  0
    2.2353    2.6556    0.0000 C   0  0
    2.9557    3.0768    0.0000 S   0  0
    2.5345    3.7963    0.0000 O   0  0
    3.6733    3.5027    0.0000 N   0  0
    3.3764    2.3559    0.0000 O   0  0
   -1.2858    2.2535    0.0000 N   0  0
    2.2359    1.8325    0.0000 C   0  0
    1.5175    3.0704    0.0000 C   0  0
    1.5189    1.4175    0.0000 C   0  0
    0.8046    1.8327    0.0000 C   0  0
    0.8066    2.6555    0.0000 C   0  0
    0.0210    2.9101    0.0000 C   0  0
   -0.4608    2.2473    0.0000 C   0  0
    0.0219    1.5779    0.0000 C   0  0
    2.9506    1.4236    0.0000 F   0  0
    4.3910    3.0893    0.0000 C   0  0
    5.1819    3.3531    0.0000 S   0  0
    5.6639    2.7000    0.0000 C   0  0
    5.1936    2.0218    0.0000 N   0  0
    4.4025    2.2696    0.0000 N   0  0
    6.4957    2.7182    0.0000 C   0  0
    6.8914    3.4459    0.0000 C   0  0
    6.9184    2.0092    0.0000 C   0  0
 26 27  1  0
 27 28  1  0
 28 29  1  0
 29 25  1  0
 28 21  1  0
 22 30  1  0
 17 20  2  0
 16 17  1  0
 17 18  2  0
 17 19  1  0
 22 16  2  0
 16 23  1  0
 23 26  2  0
 25 24  2  0
 24 22  1  0
 25 26  1  0
 19 31  1  0
 31 32  1  0
 32 33  1  0
 33 34  2  0
 34 35  1  0
 35 31  2  0
 33 36  1  0
 36 37  1  0
 36 38  1  0
  1  2  1  0
  2  3  2  0
  3  4  1  0
  4  5  2  0
  5  6  1  0
  6  7  2  0
  7  2  1  0
  1  8  2  0
  3  9  1  0
  9 10  1  0
 10 11  1  0
  5 12  1  0
 12 13  1  0
 12 14  1  0
 12 15  1  0
 21  1  1  0
M  END
>  <ID_NEW>
CPDPP3093

>  <pEC50>
8.155914929339316

$$$$

  -MTS-   10172316532D 0   0.00000     0.00000     0

 39 42  0  0  1  0  0  0  0  0999 V2000
    9.4350   -7.2810    0.0000 C   0  0  0  0  0  0  0  0  0  0  0  0
    7.2460   -6.4720    0.0000 C   0  0  0  0  0  0  0  0  0  0  0  0
    6.8660   -6.5270    0.0000 C   0  0  0  0  0  0  0  0  0  0  0  0
    7.4600   -6.1330    0.0000 S   0  0  0  0  0  0  0  0  0  0  0  0
    7.5040   -6.7740    0.0000 N   0  0  0  0  0  0  0  0  0  0  0  0
    6.7210   -6.8860    0.0000 C   0  0  0  0  0  0  0  0  0  0  0  0
    6.6280   -6.2110    0.0000 C   0  0  0  0  0  0  0  0  0  0  0  0
    7.8480   -6.2210    0.0000 C   0  0  0  0  0  0  0  0  0  0  0  0
    7.8810   -6.6280    0.0000 C   0  0  0  0  0  0  0  0  0  0  0  0
    6.3270   -6.9350    0.0000 C   0  0  0  0  0  0  0  0  0  0  0  0
    6.2210   -6.2560    0.0000 C   0  0  0  0  0  0  0  0  0  0  0  0
    8.1540   -5.9680    0.0000 C   0  0  1  0  0  0  0  0  0  0  0  0
    8.2200   -6.8550    0.0000 C   0  0  0  0  0  0  0  0  0  0  0  0
    6.0810   -6.6250    0.0000 C   0  0  0  0  0  0  0  0  0  0  0  0
    8.5180   -6.0950    0.0000 O   0  0  0  0  0  0  0  0  0  0  0  0
    5.6950   -6.6810    0.0000 C   0  0  0  0  0  0  0  0  0  0  0  0
    5.3120   -6.7010    0.0000 F   0  0  0  0  0  0  0  0  0  0  0  0
    5.7290   -7.0610    0.0000 F   0  0  0  0  0  0  0  0  0  0  0  0
    5.6660   -6.2870    0.0000 F   0  0  0  0  0  0  0  0  0  0  0  0
    8.9120   -6.0920    0.0000 C   0  0  0  0  0  0  0  0  0  0  0  0
    9.1190   -6.4310    0.0000 C   0  0  0  0  0  0  0  0  0  0  0  0
    9.4960   -6.4330    0.0000 C   0  0  0  0  0  0  0  0  0  0  0  0
    9.6980   -6.0940    0.0000 C   0  0  0  0  0  0  0  0  0  0  0  0
    9.4970   -5.7490    0.0000 C   0  0  0  0  0  0  0  0  0  0  0  0
    9.1080   -5.7500    0.0000 C   0  0  0  0  0  0  0  0  0  0  0  0
    9.6980   -6.7710    0.0000 O   0  0  0  0  0  0  0  0  0  0  0  0
   10.0940   -6.0950    0.0000 C   0  0  0  0  0  0  0  0  0  0  0  0
   10.2800   -6.4300    0.0000 N   0  0  0  0  0  0  0  0  0  0  0  0
   10.2810   -5.7480    0.0000 N   0  0  0  0  0  0  0  0  0  0  0  0
   10.7510   -5.8570    0.0000 O   0  0  0  0  0  0  0  0  0  0  0  0
   10.7540   -6.3150    0.0000 C   0  0  0  0  0  0  0  0  0  0  0  0
   11.0030   -6.5510    0.0000 O   0  0  0  0  0  0  0  0  0  0  0  0
    8.9150   -5.4210    0.0000 F   0  0  0  0  0  0  0  0  0  0  0  0
    9.7500   -7.7630    0.0000 C   0  0  0  0  0  0  0  0  0  0  0  0
    9.4870   -8.2810    0.0000 F   0  0  0  0  0  0  0  0  0  0  0  0
   10.3240   -7.7320    0.0000 F   0  0  0  0  0  0  0  0  0  0  0  0
    9.2020   -7.9410    0.0000 F   0  0  0  0  0  0  0  0  0  0  0  0
    8.0840   -5.5680    0.0000 C   0  0  0  0  0  0  0  0  0  0  0  0
    8.3910   -5.3060    0.0000 C   0  0  0  0  0  0  0  0  0  0  0  0
 16 18  1  0  0  0  0
 16 19  1  0  0  0  0
  8  9  2  0  0  0  0
 11 14  2  0  0  0  0
 15 20  1  0  0  0  0
 20 21  2  0  0  0  0
 21 22  1  0  0  0  0
 22 23  2  0  0  0  0
 23 24  1  0  0  0  0
  2  3  1  0  0  0  0
 24 25  2  0  0  0  0
 25 20  1  0  0  0  0
  2  4  1  0  0  0  0
 22 26  1  0  0  0  0
 26  1  1  0  0  0  0
  2  5  2  0  0  0  0
 23 27  1  0  0  0  0
  3  6  1  0  0  0  0
 27 28  1  0  0  0  0
  3  7  2  0  0  0  0
 27 29  2  0  0  0  0
  4  8  1  0  0  0  0
 29 30  1  0  0  0  0
  5  9  1  0  0  0  0
 28 31  1  0  0  0  0
  6 10  2  0  0  0  0
 31 32  2  0  0  0  0
 30 31  1  0  0  0  0
  7 11  1  0  0  0  0
 25 33  1  0  0  0  0
  8 12  1  0  0  0  0
  1 34  1  0  0  0  0
  9 13  1  0  0  0  0
 34 35  1  0  0  0  0
 10 14  1  0  0  0  0
 34 36  1  0  0  0  0
 12 15  1  0  0  0  0
 34 37  1  0  0  0  0
 14 16  1  0  0  0  0
 12 38  1  6  0  0  0
 16 17  1  0  0  0  0
 38 39  1  0  0  0  0
M  END
>  <ID_NEW>
CPDPP3094

>  <pEC50>
8.151128831176568

$$$$

  SciTegic12180813032D

 34 37  0  0  0  0            999 V2000
   -3.5184   -1.9071    0.0000 C   0  0
   -4.2929   -2.3308    0.0000 C   0  0
   -4.3135   -3.2139    0.0000 C   0  0
   -5.0881   -3.6376    0.0000 O   0  0
   -3.5255   -1.0214    0.0000 N   0  0
   -1.2264    0.3000    0.0000 C   0  0
   -1.2275   -0.5856    0.0000 C   0  0
   -0.4627   -1.0277    0.0000 C   0  0
    0.3037   -0.5852    0.0000 C   0  0
    0.3009    0.3037    0.0000 C   0  0
   -0.4645    0.7420    0.0000 C   0  0
   -1.9923   -1.0268    0.0000 C   0  0
   -2.7607   -0.5803    0.0000 C   0  0
    1.0638    0.7481    0.0000 C   0  0
    1.0689   -1.0257    0.0000 C   0  0
   -5.0553    2.4704    0.0000 C   0  0
   -5.8298    2.0269    0.0000 C   0  0
   -5.8239    1.1389    0.0000 C   0  0
   -4.2868    2.0327    0.0000 C   0  0
   -4.2816    1.1460    0.0000 C   0  0
   -5.0482    0.6937    0.0000 C   0  0
   -4.8573   -0.1758    0.0000 N   0  0
   -3.9722   -0.2597    0.0000 C   0  0
   -3.6172    0.5563    0.0000 S   0  0
   -5.0574    3.3537    0.0000 C   0  0
   -4.2897    3.7988    0.0000 F   0  0
   -5.8270    3.7900    0.0000 F   0  0
   -4.1975    3.1254    0.0000 F   0  0
    1.8712    0.3948    0.0000 N   0  0
    2.4594    1.0532    0.0000 O   0  0
    2.0150    1.8162    0.0000 C   0  0
    1.1522    1.6291    0.0000 N   0  0
    2.3710    2.6242    0.0000 O   0  0
   -5.1085   -4.5203    0.0000 C   0  0
  7  8  1  0
  8  9  2  0
  9 10  1  0
 10 11  2  0
 11  6  1  0
  7 12  1  0
 12 13  1  0
 13  5  1  0
 10 14  1  0
  9 15  1  0
 16 17  2  0
 17 18  1  0
 18 21  2  0
 20 19  2  0
 19 16  1  0
 20 21  1  0
 21 22  1  0
 22 23  2  0
 23 24  1  0
 24 20  1  0
 16 25  1  0
 25 26  1  0
 25 27  1  0
 25 28  1  0
 23  5  1  0
  1  2  1  0
  2  3  1  0
  3  4  1  0
  1  5  1  0
  6  7  2  0
 14 29  2  0
 29 30  1  0
 30 31  1  0
 31 32  1  0
 32 14  1  0
 31 33  2  0
  4 34  1  0
M  END
>  <ID_NEW>
CPDPP3095

>  <pEC50>
8.130561530053356

$$$$

  SciTegic12180813022D

 31 34  0  0  0  0            999 V2000
   -2.9700    1.6619    0.0000 C   0  0
   -2.2571    2.0771    0.0000 C   0  0
   -3.6889    2.0767    0.0000 C   0  0
   -4.3997    1.6650    0.0000 C   0  0
   -4.4008    0.8396    0.0000 C   0  0
   -3.6849    0.4276    0.0000 C   0  0
   -2.9679    0.8410    0.0000 C   0  0
   -1.5025    1.7470    0.0000 O   0  0
   -0.9528    2.3622    0.0000 C   0  0
   -1.3681    3.0751    0.0000 C   0  0
   -2.1743    2.9004    0.0000 N   0  0
   -1.0354    3.8301    0.0000 C   0  0
   -0.1320    2.2790    0.0000 C   0  0
    0.2063    1.5266    0.0000 O   0  0
    1.0271    1.4434    0.0000 C   0  0
    1.3604    0.6902    0.0000 C   0  0
    2.1804    0.6067    0.0000 C   0  0
    2.6638    1.2764    0.0000 C   0  0
    2.3213    2.0316    0.0000 C   0  0
    1.5023    2.1115    0.0000 C   0  0
    2.8014    2.7025    0.0000 Cl  0  0
    3.4847    1.1942    0.0000 C   0  0
   -5.1153    0.4271    0.0000 C   0  0
   -5.8298    0.8396    0.0000 F   0  0
   -5.1153   -0.3979    0.0000 F   0  0
   -5.3288    1.2240    0.0000 F   0  0
    3.9015    0.4840    0.0000 N   0  0
    4.7076    0.6595    0.0000 O   0  0
    4.7898    1.4805    0.0000 C   0  0
    4.0345    1.8122    0.0000 N   0  0
    5.5022    1.8965    0.0000 O   0  0
  1  2  1  0
  1  3  2  0
  1  7  1  0
  8  9  1  0
  9 10  2  0
 10 11  1  0
 11  2  2  0
  3  4  1  0
 10 12  1  0
  4  5  2  0
  9 13  1  0
  5  6  1  0
  6  7  2  0
  2  8  1  0
 13 14  1  0
 14 15  1  0
 15 16  2  0
 16 17  1  0
 17 18  2  0
 18 19  1  0
 19 20  2  0
 20 15  1  0
 19 21  1  0
 18 22  1  0
  5 23  1  0
 23 24  1  0
 23 25  1  0
 23 26  1  0
 22 27  2  0
 27 28  1  0
 28 29  1  0
 29 30  1  0
 30 22  1  0
 29 31  2  0
M  END
>  <ID_NEW>
CPDPP3096

>  <pEC50>
8.124008159200667

$$$$

  SciTegic12180814002D

 37 41  0  0  0  0            999 V2000
    3.7178   -7.6158    0.0000 C   0  0
    2.9147   -7.4371    0.0000 N   0  0
    2.5009   -8.1417    0.0000 C   0  0
    3.0367   -8.7584    0.0000 O   0  0
    3.7975   -8.4321    0.0000 N   0  0
    1.6763   -8.2243    0.0000 O   0  0
    4.5792   -5.6055    0.0000 C   0  0
    4.3271   -4.8182    0.0000 C   0  0
    3.5266   -4.6432    0.0000 C   0  0
    2.9731   -5.2505    0.0000 C   0  0
    3.2237   -6.0346    0.0000 C   0  0
    4.0273   -6.2131    0.0000 C   0  0
    4.2775   -7.0072    0.0000 C   0  0
    3.2721   -3.8557    0.0000 S   0  0
    4.0617   -3.6012    0.0000 O   0  0
    2.4866   -4.1104    0.0000 O   0  0
    3.0181   -3.0694    0.0000 N   0  0
   -0.3218   -0.8595    0.0000 C   0  0
   -1.1533   -0.8597    0.0000 C   0  0
   -1.5633   -1.5730    0.0000 C   0  0
   -1.1513   -2.2950    0.0000 C   0  0
   -0.3250   -2.2950    0.0000 C   0  0
    0.0896   -1.5769    0.0000 C   0  0
   -2.3882   -1.5658    0.0000 C   0  0
   -3.2158   -1.5582    0.0000 F   0  0
   -2.3980   -2.3912    0.0000 F   0  0
   -2.3804   -0.7386    0.0000 F   0  0
    0.8069   -1.9875    0.0000 C   0  0
    0.8057   -2.8149    0.0000 C   0  0
    1.5247   -3.2277    0.0000 C   0  0
    1.5229   -1.5789    0.0000 C   0  0
    2.2341   -1.9881    0.0000 C   0  0
    2.2348   -2.8145    0.0000 C   0  0
    3.5000   -2.4063    0.0000 C   0  0
    3.0186   -1.7364    0.0000 C   0  0
    3.4979   -1.0654    0.0000 C   0  0
    2.7268   -2.5074    0.0000 C   0  0
  3  6  2  0
  1  2  1  0
  2  3  1  0
  3  4  1  0
  4  5  1  0
  5  1  2  0
  9 14  1  0
  8  9  1  0
 14 15  2  0
 11 12  2  0
 14 16  2  0
 12  7  1  0
 14 17  1  0
  7  8  2  0
  9 10  2  0
 12 13  1  0
 13  1  1  0
 10 11  1  0
 22 23  2  0
 23 18  1  0
 18 19  2  0
 20 21  2  0
 20 24  1  0
 24 25  1  0
 21 22  1  0
 24 26  1  0
 19 20  1  0
 29 30  1  0
 30 33  2  0
 28 29  2  0
 32 31  2  0
 33 17  1  0
 17 34  1  0
 34 35  1  0
 35 32  1  0
 31 28  1  0
 32 33  1  0
 28 23  1  0
 35 36  1  0
 24 27  1  0
 35 37  1  0
M  END
>  <ID_NEW>
CPDPP3097

>  <pEC50>
8.122530089407006

$$$$

  -MTS-   10172316532D 0   0.00000     0.00000     0

 49 53  0  0  0  0  0  0  0  0999 V2000
   -4.2080   -2.7000    0.0000 C   0  0  0  0  0  0  0  0  0  0  0  0
   -4.2080   -3.6370    0.0000 C   0  0  1  0  0  0  0  0  0  0  0  0
   -3.4000   -4.1040    0.0000 C   0  0  0  0  0  0  0  0  0  0  0  0
   -2.5880   -3.6370    0.0000 C   0  0  0  0  0  0  0  0  0  0  0  0
   -2.5880   -2.7000    0.0000 C   0  0  2  0  0  0  0  0  0  0  0  0
   -3.4000   -2.2290    0.0000 C   0  0  0  0  0  0  0  0  0  0  0  0
   -5.0200   -4.1060    0.0000 C   0  0  0  0  0  0  0  0  0  0  0  0
   -1.7760   -2.2320    0.0000 C   0  0  0  0  0  0  0  0  0  0  0  0
   -5.8320   -3.6370    0.0000 F   0  0  0  0  0  0  0  0  0  0  0  0
   -5.0200   -5.0440    0.0000 F   0  0  0  0  0  0  0  0  0  0  0  0
   -5.2630   -3.2010    0.0000 F   0  0  0  0  0  0  0  0  0  0  0  0
   -0.9240   -2.6140    0.0000 N   0  0  0  0  0  0  0  0  0  0  0  0
   -0.2960   -1.9180    0.0000 C   0  0  0  0  0  0  0  0  0  0  0  0
   -0.7640   -1.1060    0.0000 C   0  0  0  0  0  0  0  0  0  0  0  0
   -1.6810   -1.3000    0.0000 S   0  0  0  0  0  0  0  0  0  0  0  0
    0.6360   -2.0170    0.0000 C   0  0  0  0  0  0  0  0  0  0  0  0
    1.0160   -2.8740    0.0000 N   0  0  0  0  0  0  0  0  0  0  0  0
    0.4600   -3.6250    0.0000 C   0  0  0  0  0  0  0  0  0  0  0  0
    0.8370   -4.4790    0.0000 C   0  0  0  0  0  0  0  0  0  0  0  0
    1.7690   -4.5830    0.0000 C   0  0  0  0  0  0  0  0  0  0  0  0
    2.3230   -3.8250    0.0000 C   0  0  0  0  0  0  0  0  0  0  0  0
    1.9450   -2.9640    0.0000 C   0  0  0  0  0  0  0  0  0  0  0  0
    2.1460   -5.4410    0.0000 C   0  0  0  0  0  0  0  0  0  0  0  0
    1.5920   -6.1970    0.0000 F   0  0  0  0  0  0  0  0  0  0  0  0
    3.0780   -5.5440    0.0000 F   0  0  0  0  0  0  0  0  0  0  0  0
    1.2200   -5.5840    0.0000 F   0  0  0  0  0  0  0  0  0  0  0  0
   -0.3820   -0.2490    0.0000 C   0  0  0  0  0  0  0  0  0  0  0  0
    0.5500   -0.1520    0.0000 O   0  0  0  0  0  0  0  0  0  0  0  0
   -0.9330    0.5090    0.0000 C   0  0  0  0  0  0  0  0  0  0  0  0
   -1.7460    0.9830    0.0000 C   0  0  0  0  0  0  0  0  0  0  0  0
    1.3580    0.3210    0.0000 C   0  0  0  0  0  0  0  0  0  0  0  0
    2.1720   -0.1460    0.0000 C   0  0  0  0  0  0  0  0  0  0  0  0
    2.9790    0.3260    0.0000 C   0  0  0  0  0  0  0  0  0  0  0  0
    2.9740    1.2640    0.0000 C   0  0  0  0  0  0  0  0  0  0  0  0
    2.1550    1.7270    0.0000 C   0  0  0  0  0  0  0  0  0  0  0  0
    1.3500    1.2520    0.0000 C   0  0  0  0  0  0  0  0  0  0  0  0
    3.7940   -0.1380    0.0000 O   0  0  0  0  0  0  0  0  0  0  0  0
    3.7990   -1.0750    0.0000 C   0  0  0  0  0  0  0  0  0  0  0  0
    4.6130   -1.5400    0.0000 C   0  0  0  0  0  0  0  0  0  0  0  0
    4.6180   -2.4770    0.0000 F   0  0  0  0  0  0  0  0  0  0  0  0
    5.4230   -1.0660    0.0000 F   0  0  0  0  0  0  0  0  0  0  0  0
    3.9540   -2.2060    0.0000 F   0  0  0  0  0  0  0  0  0  0  0  0
    0.5340    1.7130    0.0000 F   0  0  0  0  0  0  0  0  0  0  0  0
    3.7820    1.7380    0.0000 C   0  0  0  0  0  0  0  0  0  0  0  0
    4.5980    1.2760    0.0000 N   0  0  0  0  0  0  0  0  0  0  0  0
    5.2580    2.1040    0.0000 O   0  0  0  0  0  0  0  0  0  0  0  0
    3.7760    2.6760    0.0000 N   0  0  0  0  0  0  0  0  0  0  0  0
    4.6790    2.9250    0.0000 C   0  0  0  0  0  0  0  0  0  0  0  0
    4.9210    3.8330    0.0000 O   0  0  0  0  0  0  0  0  0  0  0  0
  1  2  1  0  0  0  0
  1  6  1  0  0  0  0
  2  3  1  0  0  0  0
  3  4  1  0  0  0  0
  4  5  1  0  0  0  0
  5  6  1  0  0  0  0
  2  7  1  1  0  0  0
  5  8  1  6  0  0  0
  7  9  1  0  0  0  0
  7 10  1  0  0  0  0
  7 11  1  0  0  0  0
  8 12  2  0  0  0  0
 12 13  1  0  0  0  0
 13 14  2  0  0  0  0
 14 15  1  0  0  0  0
 15  8  1  0  0  0  0
 13 16  1  0  0  0  0
 16 17  1  0  0  0  0
 17 18  1  0  0  0  0
 17 22  1  0  0  0  0
 18 19  1  0  0  0  0
 19 20  1  0  0  0  0
 20 21  1  0  0  0  0
 21 22  1  0  0  0  0
 20 23  1  0  0  0  0
 23 24  1  0  0  0  0
 23 25  1  0  0  0  0
 23 26  1  0  0  0  0
 14 27  1  0  0  0  0
 27 28  1  0  0  0  0
 27 29  1  0  0  0  0
 29 30  1  0  0  0  0
 28 31  1  0  0  0  0
 31 32  2  0  0  0  0
 32 33  1  0  0  0  0
 33 34  2  0  0  0  0
 34 35  1  0  0  0  0
 35 36  2  0  0  0  0
 36 31  1  0  0  0  0
 33 37  1  0  0  0  0
 37 38  1  0  0  0  0
 38 39  1  0  0  0  0
 39 40  1  0  0  0  0
 39 41  1  0  0  0  0
 39 42  1  0  0  0  0
 36 43  1  0  0  0  0
 34 44  1  0  0  0  0
 44 45  2  0  0  0  0
 45 46  1  0  0  0  0
 44 47  1  0  0  0  0
 47 48  1  0  0  0  0
 48 49  2  0  0  0  0
 48 46  1  0  0  0  0
V    2 M1
V    5 M1
M  END
>  <ID_NEW>
CPDPP3098

>  <pEC50>
8.116946509329853

$$$$

  SciTegic12180813032D

 37 41  0  0  0  0            999 V2000
    2.2201   -3.0264    0.0000 C   0  0
    2.2187   -3.7764    0.0000 N   0  0
    2.9344   -4.0084    0.0000 C   0  0
    3.3773   -3.3998    0.0000 O   0  0
    2.9353   -2.7933    0.0000 N   0  0
    3.1699   -4.7232    0.0000 O   0  0
    1.6111   -2.5851    0.0000 C   0  0
    0.0753   -1.6945    0.0000 C   0  0
    0.0791   -2.5820    0.0000 C   0  0
    0.8447   -3.0239    0.0000 C   0  0
    1.6109   -1.6951    0.0000 C   0  0
    0.8454   -1.2531    0.0000 C   0  0
   -0.6902   -1.2525    0.0000 C   0  0
   -0.6899   -0.3692    0.0000 C   0  0
   -1.4554    0.0728    0.0000 N   0  0
    0.8444   -3.9073    0.0000 C   0  0
   -4.9473   -1.4434    0.0000 C   0  0
   -4.5040   -2.2102    0.0000 C   0  0
   -3.6207   -2.2088    0.0000 C   0  0
   -4.5101   -0.6788    0.0000 C   0  0
   -3.6280   -0.6741    0.0000 C   0  0
   -3.1816   -1.4432    0.0000 C   0  0
   -2.3103   -1.2538    0.0000 S   0  0
   -2.2194   -0.3706    0.0000 C   0  0
   -3.0312   -0.0116    0.0000 N   0  0
   -4.9443   -2.9754    0.0000 C   0  0
   -5.8328   -2.9747    0.0000 F   0  0
   -4.5016   -3.7398    0.0000 F   0  0
   -5.5741   -2.3470    0.0000 F   0  0
   -1.4583    3.3576    0.0000 C   0  0
   -2.2177    3.7989    0.0000 O   0  0
   -2.9893    3.3570    0.0000 C   0  0
   -2.9890    2.4695    0.0000 C   0  0
   -2.2253    2.0281    0.0000 C   0  0
   -1.4580    2.4701    0.0000 C   0  0
   -2.2251    1.1448    0.0000 C   0  0
   -1.4573    0.7050    0.0000 C   0  0
  7  1  1  0
  1  2  1  0
  2  3  1  0
  3  4  1  0
  4  5  1  0
  5  1  2  0
  3  6  2  0
  7 11  1  0
 10 16  1  0
 11 12  2  0
 12  8  1  0
  9 10  1  0
  8 13  1  0
 13 14  1  0
 10  7  2  0
 14 15  1  0
  8  9  2  0
 17 18  2  0
 18 19  1  0
 19 22  2  0
 21 20  2  0
 20 17  1  0
 21 22  1  0
 22 23  1  0
 23 24  1  0
 24 25  2  0
 25 21  1  0
 18 26  1  0
 24 15  1  0
 26 27  1  0
 26 28  1  0
 26 29  1  0
 31 32  1  0
 32 33  1  0
 33 34  1  0
 34 35  1  0
 34 36  1  0
 30 31  1  0
 36 37  1  0
 30 35  1  0
 15 37  1  0
M  END
>  <ID_NEW>
CPDPP3099

>  <pEC50>
8.110321818645971

$$$$

  SciTegic12180813092D

 37 40  0  0  0  0            999 V2000
    2.7852   -6.0422    0.0000 N   0  0
    2.2059   -5.4465    0.0000 C   0  0
    2.4270   -4.6556    0.0000 C   0  0
    3.2308   -4.4436    0.0000 C   0  0
    3.8063   -5.0376    0.0000 C   0  0
    3.5890   -5.8303    0.0000 C   0  0
    4.6084   -4.8295    0.0000 C   0  0
    1.4076   -5.6564    0.0000 C   0  0
    0.9974   -4.9341    0.0000 F   0  0
    0.6531   -5.9998    0.0000 F   0  0
    1.6829   -6.4349    0.0000 F   0  0
    4.9127   -4.0617    0.0000 S   0  0
    5.7390   -4.1107    0.0000 C   0  0
    5.9452   -4.9157    0.0000 C   0  0
    5.2501   -5.3535    0.0000 N   0  0
    6.7168   -5.2161    0.0000 C   0  0
    6.2665   -3.4767    0.0000 C   0  0
    7.0799   -3.6128    0.0000 O   0  0
    5.9738   -2.7020    0.0000 C   0  0
    5.5575   -1.9868    0.0000 F   0  0
    6.6485   -2.2180    0.0000 C   0  0
    6.5704   -1.3963    0.0000 C   0  0
    5.2283   -3.0541    0.0000 F   0  0
    8.4750   -5.2966    0.0000 C   0  0
    8.1859   -4.5237    0.0000 C   0  0
    8.7103   -3.8868    0.0000 C   0  0
    9.5274   -4.0247    0.0000 C   0  0
    9.8164   -4.7977    0.0000 C   0  0
    9.2919   -5.4348    0.0000 C   0  0
   10.6335   -4.9356    0.0000 C   0  0
    7.3692   -4.3852    0.0000 C   0  0
    9.5790   -6.2119    0.0000 Cl  0  0
   11.0043   -5.6764    0.0000 N   0  0
   11.8241   -5.5551    0.0000 O   0  0
   11.9620   -4.7379    0.0000 C   0  0
   11.2274   -4.3544    0.0000 N   0  0
   12.6708   -4.3208    0.0000 O   0  0
 13 14  2  0
 14 15  1  0
 15  7  2  0
 14 16  1  0
 13 17  1  0
 17 18  1  0
 17 19  1  0
 19 20  1  0
 19 21  1  0
 21 22  1  0
 19 23  1  0
  3  4  2  0
  5  7  1  0
  4  5  1  0
  2  3  1  0
  5  6  2  0
  6  1  1  0
  1  2  2  0
  2  8  1  0
  8  9  1  0
 24 25  2  0
 25 26  1  0
 26 27  2  0
 27 28  1  0
 28 29  2  0
 29 24  1  0
 28 30  1  0
 25 31  1  0
 29 32  1  0
 18 31  1  0
 30 33  2  0
  8 10  1  0
  8 11  1  0
  7 12  1  0
 33 34  1  0
 34 35  1  0
 35 36  1  0
 36 30  1  0
 12 13  1  0
 35 37  2  0
M  END
>  <ID_NEW>
CPDPP3100

>  <pEC50>
8.1016570746614

$$$$

  -MTS-   10172316532D 0   0.00000     0.00000     0

 47 51  0  0  1  0  0  0  0  0999 V2000
   -1.9890    2.6670    0.0000 C   0  0  0  0  0  0  0  0  0  0  0  0
   -1.9900    2.2350    0.0000 C   0  0  0  0  0  0  0  0  0  0  0  0
   -1.6040    2.0100    0.0000 C   0  0  0  0  0  0  0  0  0  0  0  0
   -1.2300    2.2360    0.0000 C   0  0  0  0  0  0  0  0  0  0  0  0
   -1.2320    2.6700    0.0000 C   0  0  0  0  0  0  0  0  0  0  0  0
   -1.6060    2.8790    0.0000 C   0  0  0  0  0  0  0  0  0  0  0  0
   -0.8630    2.8820    0.0000 C   0  0  0  0  0  0  0  0  0  0  0  0
   -0.4790    2.6800    0.0000 N   0  0  0  0  0  0  0  0  0  0  0  0
   -0.8580    2.0110    0.0000 O   0  0  0  0  0  0  0  0  0  0  0  0
   -0.8570    1.5850    0.0000 C   0  0  0  0  0  0  0  0  0  0  0  0
   -3.7130    1.6250    0.0000 C   0  0  0  0  0  0  0  0  0  0  0  0
   -4.1410    1.5690    0.0000 C   0  0  0  0  0  0  0  0  0  0  0  0
   -3.4860    2.0020    0.0000 S   0  0  0  0  0  0  0  0  0  0  0  0
   -3.4380    1.3010    0.0000 N   0  0  0  0  0  0  0  0  0  0  0  0
   -4.3060    1.1780    0.0000 C   0  0  0  0  0  0  0  0  0  0  0  0
   -4.3970    1.9120    0.0000 C   0  0  0  0  0  0  0  0  0  0  0  0
   -3.0620    1.9030    0.0000 C   0  0  0  0  0  0  0  0  0  0  0  0
   -3.0410    1.4550    0.0000 C   0  0  0  0  0  0  0  0  0  0  0  0
   -4.7270    1.1230    0.0000 C   0  0  0  0  0  0  0  0  0  0  0  0
   -4.8290    1.8530    0.0000 C   0  0  0  0  0  0  0  0  0  0  0  0
   -2.7430    2.1750    0.0000 C   0  0  2  0  0  0  0  0  0  0  0  0
   -2.6750    1.2140    0.0000 C   0  0  0  0  0  0  0  0  0  0  0  0
   -4.9860    1.4690    0.0000 C   0  0  0  0  0  0  0  0  0  0  0  0
   -2.3420    2.0400    0.0000 O   0  0  0  0  0  0  0  0  0  0  0  0
   -5.4070    1.4210    0.0000 C   0  0  0  0  0  0  0  0  0  0  0  0
   -5.8300    1.3750    0.0000 F   0  0  0  0  0  0  0  0  0  0  0  0
   -5.3730    0.9950    0.0000 F   0  0  0  0  0  0  0  0  0  0  0  0
   -5.4440    1.8330    0.0000 F   0  0  0  0  0  0  0  0  0  0  0  0
   -0.8660    3.3210    0.0000 N   0  0  0  0  0  0  0  0  0  0  0  0
   -0.4350    3.3950    0.0000 C   0  0  0  0  0  0  0  0  0  0  0  0
   -0.1580    3.0620    0.0000 O   0  0  0  0  0  0  0  0  0  0  0  0
   -0.2820    3.7980    0.0000 O   0  0  0  0  0  0  0  0  0  0  0  0
   -2.3620    2.8900    0.0000 F   0  0  0  0  0  0  0  0  0  0  0  0
   -3.1290    0.4370    0.0000 C   0  0  0  0  0  0  0  0  0  0  0  0
   -3.1290   -0.0750    0.0000 C   0  0  0  0  0  0  0  0  0  0  0  0
   -2.6880   -0.3290    0.0000 C   0  0  0  0  0  0  0  0  0  0  0  0
   -2.2470   -0.0750    0.0000 C   0  0  0  0  0  0  0  0  0  0  0  0
   -2.2470    0.4370    0.0000 C   0  0  0  0  0  0  0  0  0  0  0  0
   -2.6880    0.6960    0.0000 N   0  0  0  0  0  0  0  0  0  0  0  0
   -2.6880   -0.8370    0.0000 C   0  0  0  0  0  0  0  0  0  0  0  0
   -3.1270   -1.0870    0.0000 F   0  0  0  0  0  0  0  0  0  0  0  0
   -2.2440   -1.0870    0.0000 F   0  0  0  0  0  0  0  0  0  0  0  0
   -3.1890   -0.7070    0.0000 F   0  0  0  0  0  0  0  0  0  0  0  0
   -1.2310    1.3660    0.0000 F   0  0  0  0  0  0  0  0  0  0  0  0
   -0.4770    1.3690    0.0000 F   0  0  0  0  0  0  0  0  0  0  0  0
   -3.2180    2.7290    0.0000 C   0  0  0  0  0  0  0  0  0  0  0  0
   -2.8580    2.5870    0.0000 C   0  0  0  0  0  0  0  0  0  0  0  0
 47 46  1  0  0  0  0
 12 16  2  0  0  0  0
 13 17  1  0  0  0  0
 14 18  1  0  0  0  0
 15 19  2  0  0  0  0
 16 20  1  0  0  0  0
 17 21  1  0  0  0  0
 18 22  1  0  0  0  0
 19 23  1  0  0  0  0
 21 24  1  0  0  0  0
 23 25  1  0  0  0  0
 25 26  1  0  0  0  0
 25 27  1  0  0  0  0
 25 28  1  0  0  0  0
 17 18  2  0  0  0  0
 20 23  2  0  0  0  0
  2 24  1  0  0  0  0
  4  5  1  0  0  0  0
  7 29  1  0  0  0  0
 29 30  1  0  0  0  0
  5  6  2  0  0  0  0
  8 31  1  0  0  0  0
 30 31  1  0  0  0  0
  6  1  1  0  0  0  0
 30 32  2  0  0  0  0
  1 33  1  0  0  0  0
 34 35  1  0  0  0  0
  5  7  1  0  0  0  0
  1  2  2  0  0  0  0
  7  8  2  0  0  0  0
  4  9  1  0  0  0  0
  2  3  1  0  0  0  0
 34 39  1  0  0  0  0
 35 36  1  0  0  0  0
 36 37  1  0  0  0  0
 37 38  1  0  0  0  0
 38 39  1  0  0  0  0
  9 10  1  0  0  0  0
 36 40  1  0  0  0  0
 40 41  1  0  0  0  0
  3  4  2  0  0  0  0
 40 42  1  0  0  0  0
 40 43  1  0  0  0  0
 22 39  1  0  0  0  0
 11 12  1  0  0  0  0
 10 44  1  0  0  0  0
 11 13  1  0  0  0  0
 10 45  1  0  0  0  0
 11 14  2  0  0  0  0
 12 15  1  0  0  0  0
 21 47  1  1  0  0  0
M  END
>  <ID_NEW>
CPDPP3101

>  <pEC50>
8.081038522663015

$$$$

  -MTS-   10172316532D 0   0.00000     0.00000     0

 33 36  0  0  1  0  0  0  0  0999 V2000
    9.0800   -4.1050    0.0000 C   0  0  0  0  0  0  0  0  0  0  0  0
    9.5650   -4.7750    0.0000 N   0  0  0  0  0  0  0  0  0  0  0  0
   10.3510   -4.5220    0.0000 O   0  0  0  0  0  0  0  0  0  0  0  0
   10.3510   -3.6970    0.0000 C   0  0  0  0  0  0  0  0  0  0  0  0
    9.5670   -3.4410    0.0000 N   0  0  0  0  0  0  0  0  0  0  0  0
   11.0200   -3.2130    0.0000 O   0  0  0  0  0  0  0  0  0  0  0  0
    8.2530   -4.1050    0.0000 C   0  0  0  0  0  0  0  0  0  0  0  0
    6.6070   -4.1860    0.0000 C   0  0  0  0  0  0  0  0  0  0  0  0
    7.0480   -4.8800    0.0000 C   0  0  0  0  0  0  0  0  0  0  0  0
    7.8720   -4.8800    0.0000 C   0  0  0  0  0  0  0  0  0  0  0  0
    7.8010   -3.4120    0.0000 C   0  0  0  0  0  0  0  0  0  0  0  0
    6.9800   -3.4120    0.0000 C   0  0  0  0  0  0  0  0  0  0  0  0
    8.1780   -2.6780    0.0000 Cl  0  0  0  0  0  0  0  0  0  0  0  0
    5.7830   -4.1860    0.0000 O   0  0  0  0  0  0  0  0  0  0  0  0
    3.1670   -5.0960    0.0000 C   0  0  0  0  0  0  0  0  0  0  0  0
    3.9300   -5.4260    0.0000 S   0  0  0  0  0  0  0  0  0  0  0  0
    4.4800   -4.8110    0.0000 C   0  0  0  0  0  0  0  0  0  0  0  0
    4.0640   -4.0990    0.0000 C   0  0  0  0  0  0  0  0  0  0  0  0
    3.2500   -4.2730    0.0000 N   0  0  0  0  0  0  0  0  0  0  0  0
    4.3970   -3.3440    0.0000 C   0  0  0  0  0  0  0  0  0  0  0  0
    5.3000   -4.8950    0.0000 C   0  0  2  0  0  0  0  0  0  0  0  0
    2.4550   -5.5150    0.0000 C   0  0  0  0  0  0  0  0  0  0  0  0
    1.7400   -5.1040    0.0000 C   0  0  0  0  0  0  0  0  0  0  0  0
    1.0340   -5.5220    0.0000 C   0  0  0  0  0  0  0  0  0  0  0  0
    1.0340   -6.3490    0.0000 C   0  0  0  0  0  0  0  0  0  0  0  0
    1.7570   -6.7560    0.0000 C   0  0  0  0  0  0  0  0  0  0  0  0
    2.4550   -6.3360    0.0000 C   0  0  0  0  0  0  0  0  0  0  0  0
    0.3230   -6.7680    0.0000 C   0  0  0  0  0  0  0  0  0  0  0  0
   -0.3950   -6.3610    0.0000 F   0  0  0  0  0  0  0  0  0  0  0  0
    0.3230   -7.5930    0.0000 F   0  0  0  0  0  0  0  0  0  0  0  0
    0.1020   -5.9730    0.0000 F   0  0  0  0  0  0  0  0  0  0  0  0
    5.6390   -5.6470    0.0000 C   0  0  0  0  0  0  0  0  0  0  0  0
    5.5570   -6.4670    0.0000 C   0  0  0  0  0  0  0  0  0  0  0  0
  7  1  1  0  0  0  0
  1  2  2  0  0  0  0
  2  3  1  0  0  0  0
  3  4  1  0  0  0  0
  4  5  1  0  0  0  0
  5  1  1  0  0  0  0
  4  6  2  0  0  0  0
 18 20  1  0  0  0  0
 17 21  1  0  0  0  0
 21 14  1  0  0  0  0
 15 16  1  0  0  0  0
 16 17  1  0  0  0  0
 17 18  2  0  0  0  0
 18 19  1  0  0  0  0
 19 15  2  0  0  0  0
 15 22  1  0  0  0  0
  8  9  2  0  0  0  0
  9 10  1  0  0  0  0
 10  7  2  0  0  0  0
  7 11  1  0  0  0  0
 11 12  2  0  0  0  0
 12  8  1  0  0  0  0
 11 13  1  0  0  0  0
  8 14  1  0  0  0  0
 22 23  2  0  0  0  0
 23 24  1  0  0  0  0
 24 25  2  0  0  0  0
 25 26  1  0  0  0  0
 26 27  2  0  0  0  0
 27 22  1  0  0  0  0
 25 28  1  0  0  0  0
 28 29  1  0  0  0  0
 28 30  1  0  0  0  0
 28 31  1  0  0  0  0
 21 32  1  1  0  0  0
 33 32  1  0  0  0  0
M  END
>  <ID_NEW>
CPDPP3102

>  <pEC50>
8.077850287918166

$$$$

  -MTS-   10172316532D 0   0.00000     0.00000     0

 35 38  0  0  0  0  0  0  0  0999 V2000
   -1.7670   -8.0460    0.0000 C   0  0  0  0  0  0  0  0  0  0  0  0
   -2.0830   -6.8710    0.0000 C   0  0  2  0  0  0  0  0  0  0  0  0
   -3.2560   -6.5590    0.0000 C   0  0  0  0  0  0  0  0  0  0  0  0
   -4.1200   -7.4180    0.0000 C   0  0  0  0  0  0  0  0  0  0  0  0
   -3.8030   -8.5930    0.0000 C   0  0  1  0  0  0  0  0  0  0  0  0
   -2.6220   -8.9090    0.0000 C   0  0  0  0  0  0  0  0  0  0  0  0
   -4.6540   -9.4510    0.0000 C   0  0  0  0  0  0  0  0  0  0  0  0
   -1.2270   -6.0120    0.0000 C   0  0  0  0  0  0  0  0  0  0  0  0
   -0.0250   -6.1940    0.0000 N   0  0  0  0  0  0  0  0  0  0  0  0
    0.5240   -5.1130    0.0000 C   0  0  0  0  0  0  0  0  0  0  0  0
   -0.3350   -4.2570    0.0000 C   0  0  0  0  0  0  0  0  0  0  0  0
   -1.4190   -4.8090    0.0000 S   0  0  0  0  0  0  0  0  0  0  0  0
    1.7210   -4.9220    0.0000 C   0  0  0  0  0  0  0  0  0  0  0  0
   -0.1470   -3.0590    0.0000 C   0  0  0  0  0  0  0  0  0  0  0  0
    0.9840   -2.6230    0.0000 O   0  0  0  0  0  0  0  0  0  0  0  0
   -4.3440  -10.6220    0.0000 F   0  0  0  0  0  0  0  0  0  0  0  0
   -5.8330   -9.1370    0.0000 F   0  0  0  0  0  0  0  0  0  0  0  0
   -3.4420   -9.4500    0.0000 F   0  0  0  0  0  0  0  0  0  0  0  0
    1.1720   -1.4250    0.0000 C   0  0  0  0  0  0  0  0  0  0  0  0
    2.3070   -0.9940    0.0000 C   0  0  0  0  0  0  0  0  0  0  0  0
    2.4950    0.2020    0.0000 C   0  0  0  0  0  0  0  0  0  0  0  0
    1.5510    0.9650    0.0000 C   0  0  0  0  0  0  0  0  0  0  0  0
    0.4150    0.5230    0.0000 C   0  0  0  0  0  0  0  0  0  0  0  0
    0.2330   -0.6720    0.0000 C   0  0  0  0  0  0  0  0  0  0  0  0
   -0.8970   -1.1130    0.0000 F   0  0  0  0  0  0  0  0  0  0  0  0
    3.6270    0.6380    0.0000 O   0  0  0  0  0  0  0  0  0  0  0  0
    4.5700   -0.1240    0.0000 C   0  0  0  0  0  0  0  0  0  0  0  0
    1.7370    2.1630    0.0000 C   0  0  0  0  0  0  0  0  0  0  0  0
    1.9240    3.3620    0.0000 N   0  0  0  0  0  0  0  0  0  0  0  0
    3.0540    3.7990    0.0000 O   0  0  0  0  0  0  0  0  0  0  0  0
    2.9360    1.9770    0.0000 N   0  0  0  0  0  0  0  0  0  0  0  0
   -1.0900   -2.2980    0.0000 C   0  0  0  0  0  0  0  0  0  0  0  0
   -2.2670   -2.6080    0.0000 C   0  0  0  0  0  0  0  0  0  0  0  0
    3.7870    2.8370    0.0000 C   0  0  0  0  0  0  0  0  0  0  0  0
    4.9580    2.5300    0.0000 O   0  0  0  0  0  0  0  0  0  0  0  0
  3  4  1  0  0  0  0
  7 17  1  0  0  0  0
  4  5  1  0  0  0  0
  7 18  1  0  0  0  0
  5  6  1  0  0  0  0
 15 19  1  0  0  0  0
 19 20  2  0  0  0  0
  5  7  1  1  0  0  0
 20 21  1  0  0  0  0
  1  2  1  0  0  0  0
 21 22  2  0  0  0  0
  2  8  1  6  0  0  0
 22 23  1  0  0  0  0
  8  9  2  0  0  0  0
 23 24  2  0  0  0  0
 24 19  1  0  0  0  0
 24 25  1  0  0  0  0
 21 26  1  0  0  0  0
 26 27  1  0  0  0  0
 22 28  1  0  0  0  0
  9 10  1  0  0  0  0
 28 29  2  0  0  0  0
 10 11  2  0  0  0  0
 29 30  1  0  0  0  0
 11 12  1  0  0  0  0
 28 31  1  0  0  0  0
 12  8  1  0  0  0  0
 10 13  1  0  0  0  0
 11 14  1  0  0  0  0
  1  6  1  0  0  0  0
 14 15  1  0  0  0  0
  2  3  1  0  0  0  0
  7 16  1  0  0  0  0
 14 32  1  0  0  0  0
 32 33  1  0  0  0  0
 31 34  1  0  0  0  0
 34 35  2  0  0  0  0
 34 30  1  0  0  0  0
V    2 M1
V    5 M1
M  END
>  <ID_NEW>
CPDPP3103

>  <pEC50>
8.073543628800888

$$$$

  -MTS-   10172316532D 0   0.00000     0.00000     0

 35 38  0  0  0  0  0  0  0  0999 V2000
    2.0530   -4.6800    0.0000 C   0  0  0  0  0  0  0  0  0  0  0  0
    2.3170   -5.4640    0.0000 C   0  0  2  0  0  0  0  0  0  0  0  0
    3.1370   -5.6250    0.0000 C   0  0  0  0  0  0  0  0  0  0  0  0
    3.6850   -5.0060    0.0000 C   0  0  0  0  0  0  0  0  0  0  0  0
    3.4190   -4.2190    0.0000 C   0  0  1  0  0  0  0  0  0  0  0  0
    2.6110   -4.0580    0.0000 C   0  0  0  0  0  0  0  0  0  0  0  0
    1.7660   -6.0820    0.0000 C   0  0  0  0  0  0  0  0  0  0  0  0
    0.9610   -5.9160    0.0000 F   0  0  0  0  0  0  0  0  0  0  0  0
    2.0280   -6.8650    0.0000 F   0  0  0  0  0  0  0  0  0  0  0  0
    1.3120   -5.3940    0.0000 F   0  0  0  0  0  0  0  0  0  0  0  0
    3.9640   -3.6000    0.0000 C   0  0  0  0  0  0  0  0  0  0  0  0
    4.7840   -3.6740    0.0000 S   0  0  0  0  0  0  0  0  0  0  0  0
    5.1110   -2.9160    0.0000 C   0  0  0  0  0  0  0  0  0  0  0  0
    4.4910   -2.3710    0.0000 C   0  0  0  0  0  0  0  0  0  0  0  0
    3.7810   -2.7930    0.0000 N   0  0  0  0  0  0  0  0  0  0  0  0
    4.5670   -1.5500    0.0000 C   0  0  0  0  0  0  0  0  0  0  0  0
    5.9150   -2.7350    0.0000 C   0  0  0  0  0  0  0  0  0  0  0  0
    6.4730   -3.3360    0.0000 O   0  0  0  0  0  0  0  0  0  0  0  0
    6.1610   -1.9470    0.0000 C   0  0  0  0  0  0  0  0  0  0  0  0
    6.9660   -1.7660    0.0000 F   0  0  0  0  0  0  0  0  0  0  0  0
    5.6010   -1.3410    0.0000 F   0  0  0  0  0  0  0  0  0  0  0  0
    6.8580   -2.3880    0.0000 F   0  0  0  0  0  0  0  0  0  0  0  0
    7.2960   -3.3890    0.0000 C   0  0  0  0  0  0  0  0  0  0  0  0
    7.6600   -4.1310    0.0000 C   0  0  0  0  0  0  0  0  0  0  0  0
    8.4830   -4.1840    0.0000 C   0  0  0  0  0  0  0  0  0  0  0  0
    8.9410   -3.4970    0.0000 C   0  0  0  0  0  0  0  0  0  0  0  0
    8.5710   -2.7550    0.0000 C   0  0  0  0  0  0  0  0  0  0  0  0
    7.7500   -2.7050    0.0000 C   0  0  0  0  0  0  0  0  0  0  0  0
    9.7650   -3.5500    0.0000 C   0  0  0  0  0  0  0  0  0  0  0  0
    8.8480   -4.9240    0.0000 Cl  0  0  0  0  0  0  0  0  0  0  0  0
   10.2060   -4.2430    0.0000 N   0  0  0  0  0  0  0  0  0  0  0  0
   11.0050   -4.0390    0.0000 O   0  0  0  0  0  0  0  0  0  0  0  0
   11.0570   -3.2150    0.0000 C   0  0  0  0  0  0  0  0  0  0  0  0
   10.2900   -2.9110    0.0000 N   0  0  0  0  0  0  0  0  0  0  0  0
   11.7670   -2.7960    0.0000 O   0  0  0  0  0  0  0  0  0  0  0  0
  7  8  1  0  0  0  0
  7  9  1  0  0  0  0
  4  5  1  0  0  0  0
  7 10  1  0  0  0  0
  2  3  1  0  0  0  0
  5 11  1  1  0  0  0
  5  6  1  0  0  0  0
  6  1  1  0  0  0  0
 11 12  1  0  0  0  0
 12 13  1  0  0  0  0
 13 14  2  0  0  0  0
 14 15  1  0  0  0  0
 15 11  2  0  0  0  0
 14 16  1  0  0  0  0
 13 17  1  0  0  0  0
 17 19  1  0  0  0  0
 19 20  1  0  0  0  0
 19 21  1  0  0  0  0
 19 22  1  0  0  0  0
 18 23  1  0  0  0  0
 23 24  2  0  0  0  0
 24 25  1  0  0  0  0
 25 26  2  0  0  0  0
 26 27  1  0  0  0  0
 27 28  2  0  0  0  0
 28 23  1  0  0  0  0
 26 29  1  0  0  0  0
 25 30  1  0  0  0  0
 29 31  2  0  0  0  0
 17 18  1  0  0  0  0
  1  2  1  0  0  0  0
  2  7  1  6  0  0  0
 31 32  1  0  0  0  0
 32 33  1  0  0  0  0
 33 34  1  0  0  0  0
 34 29  1  0  0  0  0
  3  4  1  0  0  0  0
 33 35  2  0  0  0  0
V    2 M1
V    5 M1
M  END
>  <ID_NEW>
CPDPP3104

>  <pEC50>
8.072669049956081

$$$$

  SciTegic12180813522D

 39 44  0  0  0  0            999 V2000
    2.4836   -6.0217    0.0000 C   0  0
    2.2300   -6.8075    0.0000 N   0  0
    2.9039   -7.2883    0.0000 C   0  0
    3.5615   -6.8104    0.0000 O   0  0
    3.3078   -6.0268    0.0000 N   0  0
    2.9160   -8.1129    0.0000 O   0  0
    2.2944   -5.2131    0.0000 C   0  0
    2.8898   -4.6465    0.0000 C   0  0
    2.6998   -3.8477    0.0000 C   0  0
    1.9198   -3.6130    0.0000 C   0  0
    1.3167   -4.1801    0.0000 C   0  0
    1.5068   -4.9732    0.0000 C   0  0
    1.7250   -2.8084    0.0000 S   0  0
    0.9201   -3.0058    0.0000 O   0  0
    2.5252   -2.6156    0.0000 O   0  0
    1.6027   -0.6681    0.0000 C   0  0
    2.4318   -0.6306    0.0000 C   0  0
    2.8189    0.0985    0.0000 C   0  0
    2.3618    0.8047    0.0000 O   0  0
    1.5368    0.7630    0.0000 C   0  0
    1.1564    0.0277    0.0000 C   0  0
    1.5250   -2.0001    0.0000 N   0  0
   -0.9869    0.4103    0.0000 C   0  0
   -1.4807    1.0738    0.0000 C   0  0
   -2.2972    0.9740    0.0000 C   0  0
   -2.6211    0.2152    0.0000 C   0  0
   -2.1344   -0.4477    0.0000 C   0  0
   -1.3161   -0.3532    0.0000 C   0  0
   -2.7985    1.6436    0.0000 C   0  0
   -3.2919    2.3086    0.0000 F   0  0
   -3.4646    1.1480    0.0000 F   0  0
   -2.1332    2.1390    0.0000 F   0  0
   -0.6238   -0.8056    0.0000 C   0  0
   -0.6707   -1.6246    0.0000 C   0  0
    0.0274   -2.0791    0.0000 C   0  0
    0.1131   -0.4304    0.0000 C   0  0
    0.8077   -0.8811    0.0000 C   0  0
    0.7625   -1.7033    0.0000 C   0  0
    2.0486   -1.3661    0.0000 C   0  0
  5  1  2  0
  3  6  2  0
  1  2  1  0
  2  3  1  0
  3  4  1  0
  4  5  1  0
  7  1  1  0
  9 10  1  0
 13 15  2  0
 12  7  2  0
  7  8  1  0
  8  9  2  0
 10 11  2  0
 10 13  1  0
 11 12  1  0
 13 14  2  0
 19 20  1  0
 20 21  1  0
 16 17  1  0
 16 21  1  0
 17 18  1  0
 18 19  1  0
 26 27  1  0
 24 25  1  0
 27 28  2  0
 29 30  1  0
 28 23  1  0
 29 31  1  0
 23 24  2  0
 33 28  1  0
 29 32  1  0
 25 26  2  0
 25 29  1  0
 34 35  1  0
 35 38  2  0
 33 34  2  0
 37 36  2  0
 38 22  1  0
 22 39  1  0
 39 16  1  0
 16 37  1  0
 36 33  1  0
 37 38  1  0
 22 13  1  0
M  END
>  <ID_NEW>
CPDPP3105

>  <pEC50>
8.054639161330416

$$$$

  SciTegic12180813002D

 33 36  0  0  0  0            999 V2000
    1.4192    0.3509    0.0000 C   0  0
    2.0251    0.8257    0.0000 C   0  0
    1.9166    1.5844    0.0000 C   0  0
    1.2026    1.8696    0.0000 C   0  0
    0.5966    1.3898    0.0000 C   0  0
    0.7057    0.6306    0.0000 C   0  0
    2.5193    2.0569    0.0000 C   0  0
    0.1004    0.1519    0.0000 C   0  0
   -0.6155    0.4328    0.0000 C   0  0
   -1.2208   -0.0458    0.0000 N   0  0
   -4.5014    0.3333    0.0000 C   0  0
   -4.5026   -0.4356    0.0000 C   0  0
   -3.8377   -0.8194    0.0000 C   0  0
   -3.8396    0.7170    0.0000 C   0  0
   -3.1742    0.3370    0.0000 C   0  0
   -3.1739   -0.4357    0.0000 C   0  0
   -2.4418   -0.6757    0.0000 S   0  0
   -1.9868   -0.0490    0.0000 C   0  0
   -2.4423    0.5774    0.0000 N   0  0
   -0.6750   -0.5875    0.0000 C   0  0
   -0.8732   -1.3309    0.0000 C   0  0
   -0.3252   -1.8747    0.0000 C   0  0
   -0.5193   -2.6141    0.0000 C   0  0
    3.2565    1.8468    0.0000 N   0  0
    3.6865    2.4906    0.0000 O   0  0
    3.2098    3.0933    0.0000 C   0  0
    2.4897    2.8294    0.0000 N   0  0
    3.4179    3.8329    0.0000 O   0  0
    2.7363    0.5399    0.0000 C   0  0
   -5.1677   -0.8190    0.0000 C   0  0
   -5.8323   -0.4347    0.0000 F   0  0
   -5.1683   -1.5867    0.0000 F   0  0
   -5.3659   -0.0773    0.0000 F   0  0
  6  8  1  0
  4  5  1  0
  8  9  1  0
  2  3  1  0
  5  6  2  0
  9 10  1  0
 18 19  2  0
 19 15  1  0
 14 11  1  0
 18 10  1  0
 15 16  1  0
 12 13  1  0
 13 16  2  0
 11 12  2  0
 15 14  2  0
 16 17  1  0
 17 18  1  0
 10 20  1  0
 20 21  1  0
 21 22  1  0
 22 23  1  0
  6  1  1  0
  1  2  2  0
  3  7  1  0
  3  4  2  0
  7 24  2  0
 24 25  1  0
 25 26  1  0
 26 27  1  0
 27  7  1  0
 26 28  2  0
  2 29  1  0
 12 30  1  0
 30 31  1  0
 30 32  1  0
 30 33  1  0
M  END
>  <ID_NEW>
CPDPP3106

>  <pEC50>
8.052683443286758

$$$$

  -MTS-   10172316532D 0   0.00000     0.00000     0

 38 42  0  0  1  0  0  0  0  0999 V2000
    8.9300   -2.8230    0.0000 C   0  0  0  0  0  0  0  0  0  0  0  0
    9.4150   -3.4880    0.0000 N   0  0  0  0  0  0  0  0  0  0  0  0
   10.2000   -3.2340    0.0000 O   0  0  0  0  0  0  0  0  0  0  0  0
   10.2010   -2.4090    0.0000 C   0  0  0  0  0  0  0  0  0  0  0  0
    9.4170   -2.1530    0.0000 N   0  0  0  0  0  0  0  0  0  0  0  0
   10.8700   -1.9250    0.0000 O   0  0  0  0  0  0  0  0  0  0  0  0
    8.1030   -2.8180    0.0000 C   0  0  0  0  0  0  0  0  0  0  0  0
    6.4570   -2.8990    0.0000 C   0  0  0  0  0  0  0  0  0  0  0  0
    6.8980   -3.5930    0.0000 C   0  0  0  0  0  0  0  0  0  0  0  0
    7.7220   -3.5550    0.0000 C   0  0  0  0  0  0  0  0  0  0  0  0
    7.6510   -2.1250    0.0000 C   0  0  0  0  0  0  0  0  0  0  0  0
    6.8300   -2.1660    0.0000 C   0  0  0  0  0  0  0  0  0  0  0  0
    8.0280   -1.3910    0.0000 Cl  0  0  0  0  0  0  0  0  0  0  0  0
    5.6330   -2.9380    0.0000 O   0  0  0  0  0  0  0  0  0  0  0  0
    3.0170   -3.8090    0.0000 C   0  0  0  0  0  0  0  0  0  0  0  0
    3.7800   -4.1390    0.0000 S   0  0  0  0  0  0  0  0  0  0  0  0
    4.3300   -3.5240    0.0000 C   0  0  0  0  0  0  0  0  0  0  0  0
    3.9140   -2.8110    0.0000 C   0  0  0  0  0  0  0  0  0  0  0  0
    3.1000   -2.9860    0.0000 N   0  0  0  0  0  0  0  0  0  0  0  0
    4.2470   -2.0560    0.0000 C   0  0  0  0  0  0  0  0  0  0  0  0
    5.1500   -3.6070    0.0000 C   0  0  1  0  0  0  0  0  0  0  0  0
    2.3050   -4.2270    0.0000 C   0  0  0  0  0  0  0  0  0  0  0  0
    1.5900   -3.8170    0.0000 C   0  0  0  0  0  0  0  0  0  0  0  0
    0.8780   -4.2350    0.0000 C   0  0  0  0  0  0  0  0  0  0  0  0
    0.8840   -5.0610    0.0000 C   0  0  0  0  0  0  0  0  0  0  0  0
    1.6070   -5.4690    0.0000 C   0  0  0  0  0  0  0  0  0  0  0  0
    2.3160   -5.0490    0.0000 C   0  0  0  0  0  0  0  0  0  0  0  0
    0.1730   -5.4800    0.0000 C   0  0  0  0  0  0  0  0  0  0  0  0
   -0.5450   -5.0740    0.0000 F   0  0  0  0  0  0  0  0  0  0  0  0
    0.1800   -6.3050    0.0000 F   0  0  0  0  0  0  0  0  0  0  0  0
   -0.0480   -4.6850    0.0000 F   0  0  0  0  0  0  0  0  0  0  0  0
    5.4890   -4.3590    0.0000 C   0  0  0  0  0  0  0  0  0  0  0  0
    5.2710   -5.1540    0.0000 C   0  0  0  0  0  0  0  0  0  0  0  0
    4.4720   -5.3600    0.0000 C   0  0  0  0  0  0  0  0  0  0  0  0
    4.2540   -6.1540    0.0000 C   0  0  0  0  0  0  0  0  0  0  0  0
    4.8330   -6.7410    0.0000 C   0  0  0  0  0  0  0  0  0  0  0  0
    5.6340   -6.5290    0.0000 C   0  0  0  0  0  0  0  0  0  0  0  0
    5.8480   -5.7350    0.0000 C   0  0  0  0  0  0  0  0  0  0  0  0
  7  1  1  0  0  0  0
  1  2  2  0  0  0  0
  2  3  1  0  0  0  0
  3  4  1  0  0  0  0
  4  5  1  0  0  0  0
  5  1  1  0  0  0  0
  4  6  2  0  0  0  0
 18 20  1  0  0  0  0
 17 21  1  0  0  0  0
 21 14  1  0  0  0  0
 15 16  1  0  0  0  0
 16 17  1  0  0  0  0
 17 18  2  0  0  0  0
 18 19  1  0  0  0  0
 19 15  2  0  0  0  0
 15 22  1  0  0  0  0
  8  9  2  0  0  0  0
  9 10  1  0  0  0  0
 10  7  2  0  0  0  0
  7 11  1  0  0  0  0
 11 12  2  0  0  0  0
 12  8  1  0  0  0  0
 11 13  1  0  0  0  0
  8 14  1  0  0  0  0
 22 23  2  0  0  0  0
 23 24  1  0  0  0  0
 24 25  2  0  0  0  0
 25 26  1  0  0  0  0
 26 27  2  0  0  0  0
 27 22  1  0  0  0  0
 25 28  1  0  0  0  0
 28 29  1  0  0  0  0
 28 30  1  0  0  0  0
 28 31  1  0  0  0  0
 21 32  1  6  0  0  0
 32 33  1  0  0  0  0
 33 34  2  0  0  0  0
 34 35  1  0  0  0  0
 35 36  2  0  0  0  0
 36 37  1  0  0  0  0
 37 38  2  0  0  0  0
 38 33  1  0  0  0  0
M  END
>  <ID_NEW>
CPDPP3107

>  <pEC50>
8.030370984800602

$$$$

  SciTegic12180813082D

 32 34  0  0  0  0            999 V2000
   -2.3221    2.8601    0.0000 C   0  0
   -1.7518    3.2249    0.0000 S   0  0
   -1.3856    2.6554    0.0000 O   0  0
   -2.1181    3.7981    0.0000 O   0  0
   -1.1798    3.5943    0.0000 N   0  0
   -4.6664    2.1654    0.0000 C   0  0
   -4.0780    1.8289    0.0000 C   0  0
   -3.4916    2.1716    0.0000 C   0  0
   -2.9025    1.8339    0.0000 C   0  0
   -2.3165    2.1801    0.0000 C   0  0
   -2.9155    3.1922    0.0000 C   0  0
   -3.4985    2.8478    0.0000 C   0  0
   -0.5744    3.2853    0.0000 C   0  0
   -0.4737    2.6122    0.0000 S   0  0
    0.1992    2.5070    0.0000 C   0  0
    0.5082    3.1123    0.0000 N   0  0
    0.0256    3.5924    0.0000 N   0  0
    0.5060    1.9005    0.0000 C   0  0
    0.1348    1.3301    0.0000 C   0  0
    1.1840    1.8644    0.0000 C   0  0
   -5.8269    0.1218    0.0000 C   0  0
   -5.2397   -0.2190    0.0000 C   0  0
   -5.2468    1.1394    0.0000 C   0  0
   -5.8313    0.7976    0.0000 N   0  0
   -4.6549    0.8048    0.0000 C   0  0
   -4.6543    0.1205    0.0000 C   0  0
   -5.2529    1.8185    0.0000 N   0  0
   -5.2399   -0.8981    0.0000 C   0  0
   -5.2385   -1.5181    0.0000 F   0  0
   -5.7885   -1.3484    0.0000 F   0  0
   -4.6883   -1.3487    0.0000 F   0  0
   -4.0678    1.1477    0.0000 F   0  0
  9 10  1  0
 10  1  2  0
  1 11  1  0
 11 12  2  0
 12  8  1  0
  5 13  1  0
 13 14  1  0
 14 15  1  0
 15 16  2  0
 16 17  1  0
 17 13  2  0
 15 18  1  0
 18 19  1  0
 18 20  1  0
  1  2  1  0
  2  3  2  0
  2  4  2  0
  2  5  1  0
 21 22  2  0
 22 26  1  0
 25 23  1  0
 23 24  2  0
 24 21  1  0
 25 26  2  0
 23 27  1  0
 27  6  1  0
  6  7  1  0
  7  8  1  0
  8  9  2  0
 22 28  1  0
 28 29  1  0
 28 30  1  0
 28 31  1  0
 25 32  1  0
M  END
>  <ID_NEW>
CPDPP3108

>  <pEC50>
8.012173218913425

$$$$

  SciTegic12180813002D

 37 39  0  0  0  0            999 V2000
   -0.3347   -2.9000    0.0000 C   0  0
   -0.3359   -3.7274    0.0000 C   0  0
    0.3789   -4.1402    0.0000 C   0  0
    1.0954   -3.7269    0.0000 C   0  0
    1.0925   -2.8964    0.0000 C   0  0
    0.3771   -2.4872    0.0000 C   0  0
    1.8105   -4.1383    0.0000 O   0  0
    1.8054   -2.4812    0.0000 C   0  0
    1.8023   -1.6562    0.0000 O   0  0
    1.8118   -4.9633    0.0000 C   0  0
   -1.0507   -4.1393    0.0000 C   0  0
   -1.7648   -3.7262    0.0000 F   0  0
   -1.0513   -4.9643    0.0000 F   0  0
   -1.2636   -3.3423    0.0000 F   0  0
    2.5269   -5.3746    0.0000 C   0  0
    3.0500   -2.8583    0.0000 N   0  0
    3.7625   -2.4417    0.0000 C   0  0
    4.3458   -3.0250    0.0000 C   0  0
    4.9292   -2.4375    0.0000 C   0  0
    5.7300   -2.6519    0.0000 C   0  0
    6.3130   -2.0652    0.0000 C   0  0
    6.0961   -1.2653    0.0000 C   0  0
    5.2908   -1.0553    0.0000 C   0  0
    4.7112   -1.6436    0.0000 C   0  0
    6.6792   -0.6750    0.0000 S   0  0
    6.4625    0.1250    0.0000 O   0  0
    7.0875   -1.3875    0.0000 O   0  0
    7.3917   -0.2583    0.0000 N   0  0
    8.1042   -0.6708    0.0000 C   0  0
    8.8167   -0.2542    0.0000 S   0  0
    9.5292   -0.6667    0.0000 C   0  0
    8.3167   -1.4667    0.0000 N   0  0
    9.3125   -1.4625    0.0000 N   0  0
   10.3542   -0.6667    0.0000 C   0  0
   10.7667   -1.3812    0.0000 C   0  0
   10.7667    0.0478    0.0000 C   0  0
    4.3472   -3.8500    0.0000 C   0  0
  2 11  1  0
  7 10  1  0
 11 12  1  0
 11 13  1  0
  3  4  2  0
 11 14  1  0
  4  7  1  0
  5  8  1  0
 10 15  1  0
  4  5  1  0
  2  3  1  0
  8  9  2  0
  5  6  2  0
  6  1  1  0
  1  2  2  0
 19 20  2  0
 20 21  1  0
 21 22  2  0
 22 23  1  0
 23 24  2  0
 24 19  1  0
 22 25  1  0
 25 26  2  0
 25 27  2  0
 25 28  1  0
 28 29  1  0
 29 30  1  0
 30 31  1  0
 29 32  2  0
 31 33  2  0
 32 33  1  0
 31 34  1  0
 16 17  1  0
 34 35  1  0
 17 18  1  0
 34 36  1  0
 18 19  1  0
 18 37  1  0
  8 16  1  0
M  END
>  <ID_NEW>
CPDPP3109

>  <pEC50>
7.9678227670173065

$$$$

  SciTegic12180813072D

 36 40  0  0  0  0            999 V2000
   -1.4824    2.0824    0.0000 C   0  0
   -2.0608    1.4907    0.0000 C   0  0
   -1.8372    0.6962    0.0000 C   0  0
   -0.6845    1.8809    0.0000 C   0  0
   -0.4580    1.0885    0.0000 C   0  0
   -1.0315    0.4934    0.0000 C   0  0
   -0.6427   -0.2359    0.0000 C   0  0
    0.1711   -0.0915    0.0000 C   0  0
    0.2853    0.7270    0.0000 N   0  0
   -1.4376   -0.4522    0.0000 C   0  0
   -0.4197   -1.0256    0.0000 C   0  0
   -2.8602    1.6948    0.0000 C   0  0
   -3.0810    2.4888    0.0000 C   0  0
   -3.8795    2.6930    0.0000 C   0  0
   -4.4568    2.1024    0.0000 C   0  0
   -4.2301    1.3047    0.0000 C   0  0
   -3.4320    1.1043    0.0000 C   0  0
   -5.2565    2.3054    0.0000 C   0  0
   -5.4805    3.0994    0.0000 F   0  0
   -5.8320    1.7143    0.0000 F   0  0
   -4.8534    3.0252    0.0000 F   0  0
    1.0133    1.1151    0.0000 S   0  0
    1.4258    0.4035    0.0000 O   0  0
    0.5936    1.8350    0.0000 O   0  0
    1.7254    1.5353    0.0000 C   0  0
    2.4450    1.1257    0.0000 C   0  0
    3.1566    1.5452    0.0000 C   0  0
    3.1493    2.3730    0.0000 C   0  0
    2.4242    2.7794    0.0000 C   0  0
    1.7155    2.3575    0.0000 C   0  0
    3.8594    2.7963    0.0000 C   0  0
    4.6167    2.4689    0.0000 N   0  0
    5.1621    3.0879    0.0000 C   0  0
    4.7419    3.7979    0.0000 O   0  0
    3.9369    3.6176    0.0000 N   0  0
    5.9835    3.0105    0.0000 O   0  0
  1  2  2  0
  2  3  1  0
  3  6  2  0
  5  4  2  0
  4  1  1  0
  5  6  1  0
  6  7  1  0
  7  8  1  0
  8  9  1  0
  9  5  1  0
  7 10  1  0
  7 11  1  0
  2 12  1  0
 12 13  2  0
 13 14  1  0
 14 15  2  0
 15 16  1  0
 16 17  2  0
 17 12  1  0
 15 18  1  0
 18 19  1  0
 18 20  1  0
 18 21  1  0
  9 22  1  0
 22 23  2  0
 22 24  2  0
 22 25  1  0
 25 26  2  0
 26 27  1  0
 27 28  2  0
 28 29  1  0
 29 30  2  0
 30 25  1  0
 31 32  2  0
 32 33  1  0
 33 34  1  0
 34 35  1  0
 35 31  1  0
 28 31  1  0
 33 36  2  0
M  END
>  <ID_NEW>
CPDPP3110

>  <pEC50>
7.947151699619558

$$$$

  SciTegic12180812562D

 37 40  0  0  0  0            999 V2000
    7.2119   -1.3395    0.0000 C   0  0
    7.2144   -0.5145    0.0000 C   0  0
    6.5028   -1.7541    0.0000 N   0  0
    5.7879   -1.3353    0.0000 C   0  0
    5.7915   -0.5142    0.0000 C   0  0
    5.0834   -0.1023    0.0000 C   0  0
    4.3711   -0.5104    0.0000 C   0  0
    4.3714   -1.3346    0.0000 C   0  0
    5.0802   -1.7428    0.0000 C   0  0
    3.6572   -0.0968    0.0000 O   0  0
    6.5025   -2.5791    0.0000 C   0  0
    7.2168   -2.9919    0.0000 C   0  0
    7.3030   -3.8123    0.0000 S   0  0
    8.1099   -3.9842    0.0000 C   0  0
    8.5227   -3.2698    0.0000 N   0  0
    7.9709   -2.6566    0.0000 C   0  0
    8.1427   -1.8497    0.0000 C   0  0
    8.9274   -1.5951    0.0000 C   0  0
    9.0992   -0.7881    0.0000 C   0  0
    9.8839   -0.5335    0.0000 C   0  0
    8.4451   -4.7380    0.0000 C   0  0
    7.9580   -5.4045    0.0000 C   0  0
    8.2926   -6.1577    0.0000 C   0  0
    9.1139   -6.2449    0.0000 C   0  0
    9.5994   -5.5726    0.0000 C   0  0
    9.2622   -4.8220    0.0000 C   0  0
    9.4501   -6.9982    0.0000 C   0  0
    8.9658   -7.6661    0.0000 F   0  0
   10.2707   -7.0837    0.0000 F   0  0
    8.6354   -7.1280    0.0000 F   0  0
    5.0861    0.7227    0.0000 C   0  0
    5.8019    1.1328    0.0000 C   0  0
    5.8046    1.9578    0.0000 C   0  0
    2.8542   -0.3083    0.0000 C   0  0
    2.2734    0.2775    0.0000 C   0  0
    1.4756    0.0674    0.0000 O   0  0
    2.4903    1.0735    0.0000 O   0  0
  7 10  1  0
  1  2  2  0
  3 11  1  0
 11 12  1  0
 12 13  1  0
 13 14  1  0
 14 15  2  0
 15 16  1  0
 16 12  2  0
 16 17  1  0
 17 18  1  0
 18 19  1  0
 19 20  1  0
 14 21  1  0
 21 22  2  0
 22 23  1  0
 23 24  2  0
 24 25  1  0
 25 26  2  0
 26 21  1  0
 24 27  1  0
 27 28  1  0
 27 29  1  0
 27 30  1  0
  6 31  1  0
  4  3  1  0
 31 32  1  0
  3  1  1  0
 32 33  2  0
 10 34  1  0
  2  5  1  0
 34 35  1  0
  4  5  2  0
 35 36  1  0
  5  6  1  0
 35 37  2  0
  6  7  2  0
  7  8  1  0
  8  9  2  0
  9  4  1  0
M  END
>  <ID_NEW>
CPDPP3111

>  <pEC50>
7.938531566028939

$$$$

  SciTegic12180813072D

 33 36  0  0  0  0            999 V2000
   -4.9405    2.0318    0.0000 C   0  0
   -4.6240    1.4819    0.0000 C   0  0
   -4.6217    2.5836    0.0000 C   0  0
   -3.9829    1.4825    0.0000 C   0  0
   -3.9817    2.5862    0.0000 C   0  0
   -3.6608    2.0297    0.0000 C   0  0
   -3.6575    0.9246    0.0000 O   0  0
   -3.0202    2.0307    0.0000 C   0  0
   -2.7003    1.4807    0.0000 O   0  0
   -3.0128    0.9262    0.0000 C   0  0
    1.1351    3.5454    0.0000 N   0  0
    1.6853    3.2240    0.0000 C   0  0
    1.8197    2.5927    0.0000 N   0  0
    2.4528    2.5249    0.0000 N   0  0
    2.7158    3.1001    0.0000 C   0  0
    2.2452    3.5386    0.0000 S   0  0
    3.3476    3.2275    0.0000 C   0  0
   -1.0834    2.9045    0.0000 C   0  0
   -1.0834    2.2671    0.0000 C   0  0
   -1.6878    3.1019    0.0000 C   0  0
   -0.5350    3.2281    0.0000 C   0  0
   -1.6914    2.0733    0.0000 C   0  0
   -0.5371    1.9470    0.0000 C   0  0
   -2.0634    2.5834    0.0000 C   0  0
    0.0176    2.9057    0.0000 C   0  0
    0.0202    2.2692    0.0000 C   0  0
   -2.7013    2.5819    0.0000 N   0  0
    0.5787    3.2284    0.0000 S   0  0
    0.8985    2.6675    0.0000 O   0  0
    0.2580    3.7802    0.0000 O   0  0
   -5.5759    2.0326    0.0000 Cl  0  0
    3.7692    2.7493    0.0000 C   0  0
    3.5510    3.8317    0.0000 C   0  0
 28 11  1  0
 28 29  2  0
 28 30  2  0
 25 28  1  0
 11 12  1  0
 12 13  2  0
 13 14  1  0
 14 15  2  0
 15 16  1  0
 16 12  1  0
 15 17  1  0
 18 19  2  0
 18 20  1  0
 18 21  1  0
 19 22  1  0
 19 23  1  0
 20 24  1  0
 21 25  2  0
 23 26  2  0
 24 27  1  0
 22 24  1  0
 25 26  1  0
  8  9  2  0
  5  6  1  0
  1  2  2  0
  1  3  1  0
  2  4  1  0
  3  5  2  0
  4  6  2  0
  4  7  1  0
  6  8  1  0
  7 10  1  0
 27  8  1  0
  1 31  1  0
 17 32  1  0
 17 33  1  0
M  END
>  <ID_NEW>
CPDPP3112

>  <pEC50>
7.926571918487603

$$$$

  SciTegic12180812582D

 40 44  0  0  0  0            999 V2000
   20.5471   -9.6002    0.0000 C   0  0
   20.5495   -8.1002    0.0000 C   0  0
   21.8450  -10.3522    0.0000 C   0  0
   21.8496   -7.3522    0.0000 C   0  0
   23.1452   -9.6042    0.0000 C   0  0
   26.0745   -5.5550    0.0000 C   0  0
   23.1475   -8.1042    0.0000 C   0  0
   26.6867   -4.1857    0.0000 O   0  0
   25.8171   -7.9684    0.0000 N   0  0
   26.8225   -6.8552    0.0000 O   0  0
   19.2469  -10.3482    0.0000 O   0  0
   24.4431  -10.3562    0.0000 Cl  0  0
   24.4477   -7.3562    0.0000 C   0  0
   24.6068   -5.8646    0.0000 N   0  0
   12.9178  -13.6692    0.0000 C   0  0
   12.3056  -15.0385    0.0000 C   0  0
   13.1854  -16.2534    0.0000 C   0  0
   14.6774  -16.0989    0.0000 C   0  0
   15.2897  -14.7296    0.0000 C   0  0
   14.4098  -13.5147    0.0000 C   0  0
   12.5732  -17.6228    0.0000 C   0  0
   15.0221  -12.1453    0.0000 C   0  0
   16.4898  -11.8357    0.0000 S   0  0
   16.6489  -10.3441    0.0000 C   0  0
   15.2795   -9.7319    0.0000 C   0  0
   14.2741  -10.8451    0.0000 N   0  0
   14.9699   -8.2642    0.0000 C   0  0
   17.9491   -9.5962    0.0000 C   0  0
   13.7375  -18.5686    0.0000 F   0  0
   11.7325  -18.8650    0.0000 F   0  0
   11.2624  -16.8936    0.0000 F   0  0
   13.5440   -7.7985    0.0000 O   0  0
   10.0731   -3.9316    0.0000 C   0  0
   11.4990   -4.3974    0.0000 C   0  0
   12.6152   -3.3954    0.0000 C   0  0
   12.3056   -1.9277    0.0000 C   0  0
   10.8797   -1.4620    0.0000 C   0  0
    9.7635   -2.4639    0.0000 C   0  0
   11.8086   -5.8651    0.0000 C   0  0
   13.2344   -6.3308    0.0000 C   0  0
  6  8  2  0
  5  7  1  0
  1  2  2  0
  1  3  1  0
  2  4  1  0
  3  5  2  0
  4  7  2  0
  9 10  1  0
 22 23  1  0
 21 30  1  0
 21 31  1  0
 18 19  1  0
 16 17  1  0
 19 20  2  0
 23 24  1  0
 24 25  2  0
 25 26  1  0
 26 22  2  0
 20 15  1  0
 25 27  1  0
 15 16  2  0
 13 14  1  0
 24 28  1  0
 17 21  1  0
 17 18  2  0
 20 22  1  0
 21 29  1  0
 34 35  1  0
 35 36  1  0
 36 37  1  0
 37 38  1  0
 34 39  1  0
 33 34  1  0
 39 40  1  0
 33 38  1  0
 27 32  1  0
 32 40  1  0
  9 13  2  0
  1 11  1  0
  5 12  1  0
  7 13  1  0
  6 14  1  0
  6 10  1  0
 11 28  1  0
M  END
>  <ID_NEW>
CPDPP3113

>  <pEC50>
7.9216597948107

$$$$

  SciTegic12180812592D

 36 39  0  0  0  0            999 V2000
    4.8082   -2.7056    0.0000 C   0  0
    5.6315   -2.7068    0.0000 C   0  0
    6.0422   -1.9956    0.0000 C   0  0
    5.6310   -1.2827    0.0000 C   0  0
    4.8046   -1.2856    0.0000 C   0  0
    4.3975   -1.9974    0.0000 C   0  0
    3.5726   -1.9998    0.0000 O   0  0
   -0.0156   -3.4338    0.0000 C   0  0
    0.2585   -4.0680    0.0000 C   0  0
    0.9485   -4.1434    0.0000 C   0  0
    1.3597   -3.5876    0.0000 C   0  0
    1.0804   -2.9545    0.0000 C   0  0
    0.3944   -2.8746    0.0000 C   0  0
   -0.1500   -4.6254    0.0000 S   0  0
    1.4893   -2.3965    0.0000 C   0  0
    0.2853   -5.1657    0.0000 F   0  0
   -0.6468   -5.1048    0.0000 F   0  0
   -0.6692   -4.1674    0.0000 F   0  0
    2.1853   -2.4009    0.0000 S   0  0
    2.4042   -1.7414    0.0000 C   0  0
    1.8470   -1.3328    0.0000 C   0  0
    1.2837   -1.7374    0.0000 N   0  0
    1.8501   -0.6453    0.0000 C   0  0
    3.0638   -1.5309    0.0000 C   0  0
    6.8672   -1.9958    0.0000 C   0  0
    7.3515   -2.6629    0.0000 N   0  0
    8.1362   -2.4081    0.0000 O   0  0
    8.1364   -1.5831    0.0000 C   0  0
    7.3519   -1.3281    0.0000 N   0  0
    8.8458   -1.1625    0.0000 O   0  0
    0.5375   -4.6250    0.0000 F   0  0
   -0.3292   -5.2875    0.0000 F   0  0
    6.0375   -3.4167    0.0000 Cl  0  0
    2.4470   -0.3042    0.0000 C   0  0
    2.4417    0.3875    0.0000 C   0  0
    3.0375    0.7375    0.0000 C   0  0
 14 18  1  0
 15 19  1  0
 12 13  2  0
 13  8  1  0
  8  9  2  0
  9 14  1  0
 19 20  1  0
 20 21  2  0
 21 22  1  0
 22 15  2  0
 10 11  2  0
 21 23  1  0
 12 15  1  0
 20 24  1  0
 14 16  1  0
  7 24  1  0
  3  4  2  0
  3 25  1  0
 25 26  2  0
  6  7  1  0
  4  5  1  0
  2  3  1  0
 26 27  1  0
 27 28  1  0
 28 29  1  0
 29 25  1  0
  5  6  2  0
 28 30  2  0
 14 31  1  0
  6  1  1  0
 14 32  1  0
  1  2  2  0
  2 33  1  0
 11 12  1  0
 23 34  1  0
 14 17  1  0
 34 35  1  0
  9 10  1  0
 35 36  1  0
M  END
>  <ID_NEW>
CPDPP3114

>  <pEC50>
7.9186348870529555

$$$$

  SciTegic12180813052D

 35 38  0  0  0  0            999 V2000
    3.1668   -6.5581    0.0000 O   0  0
    3.7068   -6.2433    0.0000 C   0  0
    3.7077   -5.6160    0.0000 C   0  0
    4.2434   -5.3012    0.0000 C   0  0
    4.2444   -4.6739    0.0000 C   0  0
    4.7803   -4.3614    0.0000 C   0  0
    5.3612   -4.6178    0.0000 C   0  0
    4.1320   -2.6164    0.0000 C   0  0
    3.8726   -2.0438    0.0000 C   0  0
    3.2541   -1.9816    0.0000 C   0  0
    2.8830   -2.4933    0.0000 C   0  0
    3.1426   -3.0586    0.0000 C   0  0
    3.7689   -3.1244    0.0000 C   0  0
    3.0007   -1.4024    0.0000 C   0  0
    2.7515   -0.8240    0.0000 F   0  0
    2.4216   -1.6517    0.0000 F   0  0
    3.5801   -1.1540    0.0000 F   0  0
    4.0299   -3.6911    0.0000 C   0  0
    3.7789   -4.2524    0.0000 N   0  0
    4.6464   -3.7465    0.0000 S   0  0
    5.4282   -5.2488    0.0000 O   0  0
    5.9957   -5.5096    0.0000 C   0  0
    6.0569   -6.1350    0.0000 C   0  0
    6.6239   -6.3958    0.0000 C   0  0
    7.1374   -6.0267    0.0000 C   0  0
    7.0719   -5.4064    0.0000 C   0  0
    6.5007   -5.1486    0.0000 C   0  0
    7.7012   -6.2908    0.0000 C   0  0
    7.7604   -6.9120    0.0000 N   0  0
    8.2775   -6.0426    0.0000 N   0  0
    8.6847   -6.5193    0.0000 C   0  0
    9.3111   -6.4669    0.0000 O   0  0
    8.3709   -7.0458    0.0000 O   0  0
    7.5867   -5.0360    0.0000 O   0  0
    7.5242   -4.4141    0.0000 C   0  0
  1  2  1  0
  2  3  1  0
  3  4  1  0
  4  5  1  0
  5  6  2  0
  6  7  1  0
  8  9  2  0
  9 10  1  0
 10 11  2  0
 11 12  1  0
 12 13  2  0
 13  8  1  0
 10 14  1  0
 14 15  1  0
 14 16  1  0
 14 17  1  0
 13 18  1  0
 18 19  2  0
 18 20  1  0
  6 20  1  0
  5 19  1  0
  7 21  1  0
 21 22  1  0
 22 23  2  0
 23 24  1  0
 24 25  2  0
 25 26  1  0
 26 27  2  0
 27 22  1  0
 25 28  1  0
 28 29  2  0
 28 30  1  0
 30 31  1  0
 31 32  2  0
 31 33  1  0
 33 29  1  0
 26 34  1  0
 34 35  1  0
M  END
>  <ID_NEW>
CPDPP3115

>  <pEC50>
7.9071119305174395

$$$$

  SciTegic12180812562D

 37 40  0  0  0  0            999 V2000
    6.5119   -4.5770    0.0000 C   0  0
    6.5144   -3.7520    0.0000 C   0  0
    5.8028   -4.9916    0.0000 N   0  0
    5.0879   -4.5728    0.0000 C   0  0
    5.0915   -3.7517    0.0000 C   0  0
    4.3834   -3.3398    0.0000 C   0  0
    3.6711   -3.7479    0.0000 C   0  0
    3.6714   -4.5721    0.0000 C   0  0
    4.3802   -4.9803    0.0000 C   0  0
    2.9572   -3.3343    0.0000 O   0  0
    5.8025   -5.8166    0.0000 C   0  0
    6.5168   -6.2294    0.0000 C   0  0
    6.6030   -7.0498    0.0000 S   0  0
    7.4099   -7.2217    0.0000 C   0  0
    7.8227   -6.5073    0.0000 N   0  0
    7.2709   -5.8941    0.0000 C   0  0
    7.4427   -5.0872    0.0000 C   0  0
    8.2274   -4.8326    0.0000 C   0  0
    8.3992   -4.0256    0.0000 C   0  0
    9.1839   -3.7710    0.0000 C   0  0
    7.7451   -7.9755    0.0000 C   0  0
    7.2580   -8.6420    0.0000 C   0  0
    7.5926   -9.3952    0.0000 C   0  0
    8.4139   -9.4824    0.0000 C   0  0
    8.8994   -8.8101    0.0000 C   0  0
    8.5622   -8.0595    0.0000 C   0  0
    8.7501  -10.2357    0.0000 C   0  0
    8.2658  -10.9036    0.0000 F   0  0
    9.5707  -10.3212    0.0000 F   0  0
    7.9354  -10.3655    0.0000 F   0  0
    4.3861   -2.5148    0.0000 C   0  0
    5.1019   -2.1047    0.0000 C   0  0
    5.1046   -1.2797    0.0000 C   0  0
    2.1542   -3.5458    0.0000 C   0  0
    1.5734   -2.9600    0.0000 C   0  0
    0.7756   -3.1701    0.0000 O   0  0
    1.7903   -2.1640    0.0000 O   0  0
  7 10  1  0
  1  2  2  0
  3 11  1  0
 11 12  1  0
 12 13  1  0
 13 14  1  0
 14 15  2  0
 15 16  1  0
 16 12  2  0
 16 17  1  0
 17 18  1  0
 18 19  1  0
 19 20  1  0
 14 21  1  0
 21 22  2  0
 22 23  1  0
 23 24  2  0
 24 25  1  0
 25 26  2  0
 26 21  1  0
 24 27  1  0
 27 28  1  0
 27 29  1  0
 27 30  1  0
  6 31  1  0
  4  3  1  0
 31 32  1  0
  3  1  1  0
 32 33  1  0
 10 34  1  0
  2  5  1  0
 34 35  1  0
  4  5  2  0
 35 36  1  0
  5  6  1  0
 35 37  2  0
  6  7  2  0
  7  8  1  0
  8  9  2  0
  9  4  1  0
M  END
>  <ID_NEW>
CPDPP3116

>  <pEC50>
7.8964208585028945

$$$$

  SciTegic12180814002D

 42 47  0  0  0  0            999 V2000
    8.7715   -6.4210    0.0000 C   0  0
    8.2654   -7.0703    0.0000 N   0  0
    8.7221   -7.7528    0.0000 C   0  0
    9.5176   -7.5312    0.0000 O   0  0
    9.5492   -6.7058    0.0000 N   0  0
    8.4410   -8.5306    0.0000 O   0  0
    7.5989   -4.5877    0.0000 C   0  0
    7.7894   -5.3860    0.0000 C   0  0
    8.5792   -5.6239    0.0000 C   0  0
    9.1832   -5.0563    0.0000 C   0  0
    8.9844   -4.2550    0.0000 C   0  0
    8.1940   -4.0209    0.0000 C   0  0
    7.9958   -3.2167    0.0000 S   0  0
    8.8003   -3.0211    0.0000 O   0  0
    7.1920   -3.4128    0.0000 O   0  0
    9.9816   -5.2885    0.0000 Cl  0  0
    4.5905   -0.0177    0.0000 C   0  0
    3.7632    0.0321    0.0000 C   0  0
    3.3115   -0.6562    0.0000 C   0  0
    3.6776   -1.4032    0.0000 C   0  0
    4.5040   -1.4532    0.0000 C   0  0
    4.9602   -0.7601    0.0000 C   0  0
    2.4866   -0.5990    0.0000 C   0  0
    1.6590   -0.5414    0.0000 F   0  0
    2.4268   -1.4244    0.0000 F   0  0
    2.5444    0.2282    0.0000 F   0  0
    5.6526   -1.2125    0.0000 C   0  0
    7.8790   -1.0790    0.0000 C   0  0
    8.7082   -1.0415    0.0000 C   0  0
    9.0923   -0.3110    0.0000 O   0  0
    8.6338    0.3961    0.0000 C   0  0
    7.8088    0.3544    0.0000 O   0  0
    7.4298   -0.3818    0.0000 C   0  0
    5.6056   -2.0314    0.0000 C   0  0
    6.3037   -2.4860    0.0000 C   0  0
    6.3894   -0.8413    0.0000 C   0  0
    7.0798   -1.2879    0.0000 C   0  0
    7.0346   -2.1103    0.0000 C   0  0
    7.7971   -2.4111    0.0000 N   0  0
    8.3208   -1.7729    0.0000 C   0  0
    9.0161    1.1352    0.0000 C   0  0
    8.5277   -0.4247    0.0000 C   0  0
  5  1  2  0
  3  6  2  0
  1  2  1  0
  2  3  1  0
  3  4  1  0
  4  5  1  0
 12  7  1  0
  7  8  2  0
  9  1  1  0
  9 10  2  0
 12 13  1  0
 13 14  2  0
 10 11  1  0
 13 15  2  0
  8  9  1  0
 11 12  2  0
 10 16  1  0
 20 21  1  0
 23 25  1  0
 18 19  1  0
 27 22  1  0
 23 26  1  0
 21 22  2  0
 22 17  1  0
 17 18  2  0
 19 20  2  0
 19 23  1  0
 23 24  1  0
 31 32  1  0
 32 33  1  0
 28 29  1  0
 28 33  1  0
 28 37  1  0
 37 38  1  0
 34 35  1  0
 35 38  2  0
 27 34  2  0
 37 36  2  0
 36 27  1  0
 38 39  1  0
 39 40  1  0
 40 28  1  0
 29 30  1  0
 31 41  1  0
 30 31  1  0
 31 42  1  0
 39 13  1  0
M  END
>  <ID_NEW>
CPDPP3117

>  <pEC50>
7.856095859027025

$$$$

  SciTegic12180812332D

 40 44  0  0  0  0            999 V2000
   -1.8556    2.6625    0.0000 C   0  0
   -1.8568    2.2143    0.0000 C   0  0
   -1.4628    1.9890    0.0000 C   0  0
   -1.0755    2.2148    0.0000 C   0  0
   -1.0784    2.6662    0.0000 C   0  0
   -1.4646    2.8836    0.0000 C   0  0
   -0.6926    2.8902    0.0000 C   0  0
   -0.2997    2.6713    0.0000 N   0  0
   -0.6874    1.9904    0.0000 O   0  0
   -3.6420    1.5875    0.0000 C   0  0
   -4.0867    1.5276    0.0000 C   0  0
   -3.4070    1.9731    0.0000 S   0  0
   -3.3549    1.2506    0.0000 N   0  0
   -4.2563    1.1241    0.0000 C   0  0
   -4.3471    1.8866    0.0000 C   0  0
   -2.9704    1.8702    0.0000 C   0  0
   -2.9415    1.4087    0.0000 C   0  0
   -4.6899    1.0648    0.0000 C   0  0
   -4.7959    1.8240    0.0000 C   0  0
   -2.6346    2.1587    0.0000 C   0  0
   -2.5672    1.1601    0.0000 C   0  0
   -4.9611    1.4227    0.0000 C   0  0
   -2.2208    2.0154    0.0000 O   0  0
   -5.3942    1.3715    0.0000 C   0  0
   -5.8302    1.3329    0.0000 F   0  0
   -5.3564    0.9322    0.0000 F   0  0
   -5.4357    1.8043    0.0000 F   0  0
   -0.6955    3.3416    0.0000 N   0  0
   -0.2514    3.4156    0.0000 C   0  0
    0.0292    3.0708    0.0000 O   0  0
   -0.0943    3.8315    0.0000 O   0  0
   -2.5953    0.7116    0.0000 N   0  0
   -0.6877    1.5421    0.0000 C   0  0
   -3.0006    0.5119    0.0000 C   0  0
   -3.0296    0.0654    0.0000 C   0  0
   -2.6564   -0.1852    0.0000 C   0  0
   -2.2530    0.0140    0.0000 C   0  0
   -2.2228    0.4638    0.0000 C   0  0
   -2.6862   -0.6338    0.0000 O   0  0
   -3.0896   -0.8323    0.0000 C   0  0
  7  8  2  0
 29 31  2  0
 21 32  1  0
  4  9  1  0
  9 33  1  0
 32 34  1  0
 32 38  1  0
 34 35  1  0
 35 36  1  0
 36 37  1  0
 37 38  1  0
 36 39  1  0
 39 40  1  0
  1  2  2  0
  2  3  1  0
  3  4  2  0
  4  5  1  0
  5  6  2  0
  6  1  1  0
 10 11  1  0
 10 12  1  0
 10 13  2  0
 11 14  1  0
 11 15  2  0
 12 16  1  0
 13 17  1  0
 14 18  2  0
 15 19  1  0
 16 20  1  0
 17 21  1  0
 18 22  1  0
 20 23  1  0
 22 24  1  0
 24 25  1  0
 24 26  1  0
 24 27  1  0
 16 17  2  0
 19 22  2  0
  2 23  1  0
  7 28  1  0
  5  7  1  0
 28 29  1  0
  8 30  1  0
 29 30  1  0
M  END
>  <ID_NEW>
CPDPP3118

>  <pEC50>
7.851750740634623

$$$$

  SciTegic12180812582D

 43 48  0  0  0  0            999 V2000
    1.4302    0.0929    0.0000 C   0  0
    0.6757   -0.0585    0.0000 C   0  0
    0.4315   -0.7874    0.0000 C   0  0
    0.9376   -1.3649    0.0000 C   0  0
    1.6920   -1.2134    0.0000 C   0  0
    1.9404   -0.4845    0.0000 C   0  0
   -0.3187   -0.9346    0.0000 O   0  0
    2.1981   -1.7908    0.0000 Cl  0  0
    2.6906   -0.3372    0.0000 C   0  0
   -3.9269   -1.5081    0.0000 C   0  0
   -4.4465   -2.0725    0.0000 C   0  0
   -4.2167   -2.8048    0.0000 C   0  0
   -3.4673   -2.9771    0.0000 C   0  0
   -2.9478   -2.4086    0.0000 C   0  0
   -3.1775   -1.6762    0.0000 C   0  0
   -4.7406   -3.3692    0.0000 C   0  0
   -2.6577   -1.1161    0.0000 C   0  0
   -1.8933   -1.2044    0.0000 S   0  0
   -1.5709   -0.5045    0.0000 C   0  0
   -2.1357    0.0133    0.0000 C   0  0
   -2.8064   -0.3617    0.0000 N   0  0
   -2.0449    0.7780    0.0000 C   0  0
   -0.8248   -0.3572    0.0000 C   0  0
   -4.3331   -4.0167    0.0000 F   0  0
   -5.3511   -3.8359    0.0000 F   0  0
   -5.2568   -2.8009    0.0000 F   0  0
   -3.9834    1.3912    0.0000 C   0  0
   -3.3688    0.9325    0.0000 C   0  0
   -2.6594    1.2374    0.0000 N   0  0
   -2.5685    1.9977    0.0000 C   0  0
   -3.1914    2.4548    0.0000 C   0  0
   -3.8925    2.1515    0.0000 N   0  0
   -4.5112    2.6086    0.0000 C   0  0
   -4.4204    3.3696    0.0000 C   0  0
   -5.0376    3.8305    0.0000 C   0  0
   -5.7422    3.5250    0.0000 C   0  0
   -5.8308    2.7540    0.0000 C   0  0
   -5.2117    2.2997    0.0000 C   0  0
    3.2510   -0.8525    0.0000 N   0  0
    3.9190   -0.4806    0.0000 O   0  0
    3.7717    0.2696    0.0000 C   0  0
    3.0127    0.3612    0.0000 N   0  0
    4.2920    0.8298    0.0000 O   0  0
 18 19  1  0
 19 20  2  0
 20 21  1  0
 21 17  2  0
 15 10  1  0
 20 22  1  0
 10 11  2  0
  6  1  1  0
  3  7  1  0
  5  8  1  0
  6  9  1  0
  1  2  2  0
  2  3  1  0
  3  4  2  0
 27 28  1  0
 27 32  1  0
 28 29  1  0
 29 30  1  0
 30 31  1  0
 31 32  1  0
 32 33  1  0
 22 29  1  0
  4  5  1  0
  5  6  2  0
 19 23  1  0
 12 16  1  0
 23  7  1  0
 12 13  2  0
 15 17  1  0
 16 24  1  0
 17 18  1  0
 16 25  1  0
 16 26  1  0
 13 14  1  0
 11 12  1  0
 14 15  2  0
 33 34  2  0
 34 35  1  0
 35 36  2  0
 36 37  1  0
 37 38  2  0
 38 33  1  0
  9 39  2  0
 39 40  1  0
 40 41  1  0
 41 42  1  0
 42  9  1  0
 41 43  2  0
M  END
>  <ID_NEW>
CPDPP3119

>  <pEC50>
7.837513997572219

$$$$

  SciTegic12180813032D

 36 40  0  0  0  0            999 V2000
    2.2564   -1.8646    0.0000 C   0  0
    2.3197   -2.6120    0.0000 N   0  0
    3.0527   -2.7814    0.0000 C   0  0
    3.4415   -2.1368    0.0000 O   0  0
    2.9488   -1.5707    0.0000 N   0  0
    3.3490   -3.4732    0.0000 O   0  0
    1.6115   -1.4776    0.0000 C   0  0
    0.0753   -0.5862    0.0000 C   0  0
    0.0791   -1.4737    0.0000 C   0  0
    0.8447   -1.9156    0.0000 C   0  0
    1.6109   -0.5868    0.0000 C   0  0
    0.8454   -0.1448    0.0000 C   0  0
   -0.6902   -0.1442    0.0000 C   0  0
   -0.6899    0.7391    0.0000 C   0  0
   -1.4554    1.1811    0.0000 N   0  0
    0.8444   -2.7990    0.0000 C   0  0
   -3.7520    2.5070    0.0000 C   0  0
   -3.7517    3.3903    0.0000 O   0  0
   -2.9900    3.8317    0.0000 C   0  0
   -2.2244    3.3897    0.0000 C   0  0
   -2.2247    2.5064    0.0000 C   0  0
   -2.9907    2.0650    0.0000 C   0  0
   -1.4551    2.0644    0.0000 C   0  0
   -4.9473   -0.3351    0.0000 C   0  0
   -4.5040   -1.1019    0.0000 C   0  0
   -3.6207   -1.1005    0.0000 C   0  0
   -4.5101    0.4295    0.0000 C   0  0
   -3.6280    0.4342    0.0000 C   0  0
   -3.1816   -0.3349    0.0000 C   0  0
   -2.3103   -0.1455    0.0000 S   0  0
   -2.2194    0.7377    0.0000 C   0  0
   -3.0312    1.0967    0.0000 N   0  0
   -4.9443   -1.8671    0.0000 C   0  0
   -5.8328   -1.8664    0.0000 F   0  0
   -4.5016   -2.6315    0.0000 F   0  0
   -5.5741   -1.2387    0.0000 F   0  0
  7  1  1  0
  1  2  1  0
  2  3  1  0
  3  4  1  0
  4  5  1  0
  5  1  2  0
  3  6  2  0
  7 11  1  0
 10 16  1  0
 11 12  2  0
 12  8  1  0
  9 10  1  0
  8 13  1  0
 13 14  1  0
 10  7  2  0
 14 15  1  0
  8  9  2  0
 17 22  1  0
 18 19  1  0
 19 20  1  0
 20 21  1  0
 21 22  1  0
 21 23  1  0
 17 18  1  0
 15 23  1  0
 24 25  2  0
 25 26  1  0
 26 29  2  0
 28 27  2  0
 27 24  1  0
 28 29  1  0
 29 30  1  0
 30 31  1  0
 31 32  2  0
 32 28  1  0
 25 33  1  0
 31 15  1  0
 33 34  1  0
 33 35  1  0
 33 36  1  0
M  END
>  <ID_NEW>
CPDPP3120

>  <pEC50>
7.831039363908545

$$$$

  SciTegic12180813082D

 36 40  0  0  0  0            999 V2000
   10.2413   -1.7935    0.0000 C   0  0
    8.1737   -2.5140    0.0000 C   0  0
    9.0028   -2.5104    0.0000 C   0  0
    9.4163   -1.7929    0.0000 C   0  0
    8.9965   -1.0793    0.0000 C   0  0
    8.1715   -1.0799    0.0000 C   0  0
    7.7622   -1.7959    0.0000 C   0  0
    6.9331   -1.7995    0.0000 S   0  0
    9.4184   -3.2285    0.0000 Cl  0  0
    6.1177   -1.6593    0.0000 O   0  0
    7.0018   -0.9826    0.0000 O   0  0
    2.5154   -4.4827    0.0000 C   0  0
    2.3015   -5.2783    0.0000 C   0  0
    2.8897   -5.8656    0.0000 C   0  0
    3.6877   -5.6489    0.0000 C   0  0
    3.9015   -4.8491    0.0000 C   0  0
    3.3133   -4.2660    0.0000 C   0  0
    1.5036   -5.4950    0.0000 C   0  0
    1.5072   -6.3242    0.0000 F   0  0
    0.6804   -5.5710    0.0000 F   0  0
    1.3604   -4.6809    0.0000 F   0  0
    5.2836   -5.2155    0.0000 C   0  0
    4.6995   -4.6324    0.0000 C   0  0
    4.9092   -3.8326    0.0000 C   0  0
    6.0856   -4.9988    0.0000 C   0  0
    6.2954   -4.1990    0.0000 C   0  0
    5.7114   -3.6159    0.0000 C   0  0
    5.9212   -2.8160    0.0000 C   0  0
    6.7191   -2.5993    0.0000 N   0  0
    7.3073   -3.1825    0.0000 C   0  0
    7.0934   -3.9823    0.0000 C   0  0
   10.7211   -2.4594    0.0000 N   0  0
   11.5060   -2.2051    0.0000 O   0  0
   11.5066   -1.3801    0.0000 C   0  0
   10.7222   -1.1246    0.0000 N   0  0
   12.2167   -0.9625    0.0000 O   0  0
  4  5  2  0
  3  9  1  0
  5  6  1  0
  8 10  2  0
  3  4  1  0
  8 11  2  0
 18 21  1  0
 16 17  2  0
 23 24  1  0
 24 27  2  0
 26 25  2  0
 26 31  1  0
 27 28  1  0
 28 29  1  0
 29 30  1  0
 30 31  1  0
 25 22  1  0
 26 27  1  0
 22 23  2  0
 23 16  1  0
 17 12  1  0
 12 13  2  0
 14 15  2  0
 13 18  1  0
 18 19  1  0
 15 16  1  0
 18 20  1  0
 13 14  1  0
  8 29  1  0
  1  4  1  0
  1 32  2  0
  6  7  2  0
  7  2  1  0
  2  3  2  0
 32 33  1  0
 33 34  1  0
 34 35  1  0
 35  1  1  0
  7  8  1  0
 34 36  2  0
M  END
>  <ID_NEW>
CPDPP3121

>  <pEC50>
7.830522546907127

$$$$

  SciTegic12180813072D

 39 43  0  0  0  0            999 V2000
    1.9832   -5.3214    0.0000 C   0  0
    2.3917   -6.0409    0.0000 C   0  0
    3.2172   -6.0458    0.0000 N   0  0
    3.6351   -5.3319    0.0000 C   0  0
    3.2214   -4.6117    0.0000 C   0  0
    2.3973   -4.6104    0.0000 C   0  0
    1.9746   -6.7526    0.0000 C   0  0
    1.1497   -6.7473    0.0000 F   0  0
    2.3825   -7.4697    0.0000 F   0  0
    1.3951   -6.1656    0.0000 F   0  0
    3.6353   -3.8981    0.0000 C   0  0
    4.4544   -3.8114    0.0000 S   0  0
    4.6275   -3.0047    0.0000 C   0  0
    3.9137   -2.5908    0.0000 C   0  0
    3.2997   -3.1417    0.0000 N   0  0
    3.8290   -1.7702    0.0000 C   0  0
    5.3818   -2.6706    0.0000 C   0  0
    6.0483   -3.1569    0.0000 O   0  0
    5.4696   -1.8503    0.0000 C   0  0
    6.2239   -1.5161    0.0000 C   0  0
    6.8883   -2.0047    0.0000 C   0  0
    7.6420   -1.6712    0.0000 C   0  0
    7.7304   -0.8501    0.0000 C   0  0
    7.0589   -0.3635    0.0000 C   0  0
    6.3078   -0.6996    0.0000 C   0  0
    8.4449   -0.4409    0.0000 F   0  0
    7.2875   -3.8639    0.0000 C   0  0
    8.1107   -3.8651    0.0000 C   0  0
    8.5215   -3.1539    0.0000 C   0  0
    8.1102   -2.4410    0.0000 C   0  0
    7.2839   -2.4439    0.0000 C   0  0
    6.8768   -3.1557    0.0000 C   0  0
    8.5226   -4.5799    0.0000 Cl  0  0
    9.3465   -3.1541    0.0000 C   0  0
    9.8344   -3.8184    0.0000 N   0  0
   10.6191   -3.5637    0.0000 O   0  0
   10.6193   -2.7386    0.0000 C   0  0
    9.8348   -2.4836    0.0000 N   0  0
   11.3292   -2.3208    0.0000 O   0  0
 17 19  1  0
  1  2  2  0
 19 20  1  0
  2  7  1  0
 20 21  2  0
  3  4  2  0
 21 22  1  0
  7  8  1  0
 22 23  2  0
  7  9  1  0
 23 24  1  0
  4  5  1  0
 24 25  2  0
 25 20  1  0
  7 10  1  0
 23 26  1  0
  2  3  1  0
  5 11  1  0
  5  6  2  0
  6  1  1  0
 11 12  1  0
 12 13  1  0
 13 14  2  0
 14 15  1  0
 28 29  1  0
 31 32  2  0
 32 27  1  0
 27 28  2  0
 32 18  1  0
 29 30  2  0
 28 33  1  0
 29 34  1  0
 30 31  1  0
 34 35  2  0
 15 11  2  0
 14 16  1  0
 13 17  1  0
 35 36  1  0
 36 37  1  0
 37 38  1  0
 38 34  1  0
 17 18  1  0
 37 39  2  0
M  END
>  <ID_NEW>
CPDPP3122

>  <pEC50>
7.829756590214628

$$$$

  SciTegic12180813072D

 37 41  0  0  0  0            999 V2000
    4.2134   -2.2358    0.0000 C   0  0
    4.3574   -3.0514    0.0000 C   0  0
    5.1338   -3.3359    0.0000 C   0  0
    5.7691   -2.8018    0.0000 C   0  0
    6.5454   -3.0804    0.0000 C   0  0
    3.4357   -1.9557    0.0000 C   0  0
    4.8459   -1.7047    0.0000 C   0  0
    5.6222   -1.9833    0.0000 C   0  0
    6.2576   -1.4552    0.0000 C   0  0
    6.1137   -0.6396    0.0000 C   0  0
    5.3342   -0.3579    0.0000 C   0  0
    4.7043   -0.8915    0.0000 C   0  0
   -0.5084   -5.7041    0.0000 C   0  0
    0.0895   -6.2782    0.0000 C   0  0
    0.8816   -6.0525    0.0000 C   0  0
    1.0795   -5.2487    0.0000 C   0  0
    0.4832   -4.6727    0.0000 C   0  0
   -0.3085   -4.9039    0.0000 C   0  0
   -0.1134   -7.0811    0.0000 C   0  0
    0.6126   -7.4840    0.0000 F   0  0
   -0.4493   -7.8372    0.0000 F   0  0
   -0.8968   -6.8148    0.0000 F   0  0
    0.6855   -3.8759    0.0000 C   0  0
    1.4523   -3.5664    0.0000 S   0  0
    1.3887   -2.7395    0.0000 C   0  0
    0.5887   -2.5396    0.0000 C   0  0
    0.1526   -3.2417    0.0000 N   0  0
    0.2789   -1.7740    0.0000 C   0  0
    2.0245   -2.2059    0.0000 C   0  0
    2.8028   -2.4864    0.0000 O   0  0
    1.8821   -1.3918    0.0000 C   0  0
    2.5150   -0.8611    0.0000 C   0  0
    6.7778   -3.8700    0.0000 N   0  0
    7.6022   -3.8951    0.0000 O   0  0
    7.8809   -3.1187    0.0000 C   0  0
    7.2286   -2.6140    0.0000 N   0  0
    8.6708   -2.8947    0.0000 O   0  0
  4  8  2  0
  4  5  1  0
  1  6  1  0
  7  8  1  0
  8  9  1  0
  9 10  2  0
 10 11  1  0
 11 12  2  0
 12  7  1  0
 13 14  2  0
 14 15  1  0
 15 16  2  0
 16 17  1  0
 17 18  2  0
 18 13  1  0
 14 19  1  0
 19 20  1  0
 19 21  1  0
 19 22  1  0
 17 23  1  0
 23 24  1  0
 24 25  1  0
 25 26  2  0
 26 27  1  0
 27 23  2  0
 26 28  1  0
 25 29  1  0
 29 30  1  0
 29 31  1  0
 31 32  1  0
  6 30  1  0
  5 33  2  0
  7  1  2  0
  1  2  1  0
  2  3  2  0
 33 34  1  0
 34 35  1  0
 35 36  1  0
 36  5  1  0
  3  4  1  0
 35 37  2  0
M  END
>  <ID_NEW>
CPDPP3123

>  <pEC50>
7.828291233070688

$$$$

  -MTS-   10172316532D 0   0.00000     0.00000     0

 39 43  0  0  1  0  0  0  0  0999 V2000
    1.3630   -0.0300    0.0000 C   0  0  0  0  0  0  0  0  0  0  0  0
    1.7450   -0.7230    0.0000 C   0  0  0  0  0  0  0  0  0  0  0  0
    2.5500   -0.7350    0.0000 C   0  0  0  0  0  0  0  0  0  0  0  0
    2.5550    0.6480    0.0000 C   0  0  0  0  0  0  0  0  0  0  0  0
    1.7640    0.6480    0.0000 C   0  0  0  0  0  0  0  0  0  0  0  0
    2.9550   -0.0460    0.0000 C   0  0  0  0  0  0  0  0  0  0  0  0
    2.9570    1.3330    0.0000 Cl  0  0  0  0  0  0  0  0  0  0  0  0
    3.7300   -0.0560    0.0000 C   0  0  0  0  0  0  0  0  0  0  0  0
    4.2020   -0.6880    0.0000 N   0  0  0  0  0  0  0  0  0  0  0  0
    4.9520   -0.4500    0.0000 O   0  0  0  0  0  0  0  0  0  0  0  0
    4.9580    0.3380    0.0000 C   0  0  0  0  0  0  0  0  0  0  0  0
    4.2030    0.5830    0.0000 N   0  0  0  0  0  0  0  0  0  0  0  0
    5.5930    0.8020    0.0000 O   0  0  0  0  0  0  0  0  0  0  0  0
    0.7600   -0.1320    0.0000 O   0  0  0  0  0  0  0  0  0  0  0  0
   -3.4840    0.0360    0.0000 C   0  0  0  0  0  0  0  0  0  0  0  0
   -3.8660   -0.6070    0.0000 C   0  0  0  0  0  0  0  0  0  0  0  0
   -3.5130   -1.2480    0.0000 C   0  0  0  0  0  0  0  0  0  0  0  0
   -2.7650   -1.2590    0.0000 C   0  0  0  0  0  0  0  0  0  0  0  0
   -2.3930   -0.6150    0.0000 C   0  0  0  0  0  0  0  0  0  0  0  0
   -2.7530    0.0270    0.0000 C   0  0  0  0  0  0  0  0  0  0  0  0
   -1.6510   -0.6220    0.0000 C   0  0  0  0  0  0  0  0  0  0  0  0
   -1.2250   -1.2210    0.0000 N   0  0  0  0  0  0  0  0  0  0  0  0
   -0.5210   -0.9940    0.0000 C   0  0  0  0  0  0  0  0  0  0  0  0
   -0.5230   -0.2640    0.0000 C   0  0  0  0  0  0  0  0  0  0  0  0
   -1.2190   -0.0250    0.0000 S   0  0  0  0  0  0  0  0  0  0  0  0
    0.0630   -1.4390    0.0000 C   0  0  0  0  0  0  0  0  0  0  0  0
    0.0830    0.1700    0.0000 C   0  0  2  0  0  0  0  0  0  0  0  0
   -4.6080   -0.5960    0.0000 C   0  0  0  0  0  0  0  0  0  0  0  0
   -4.9840   -1.2210    0.0000 F   0  0  0  0  0  0  0  0  0  0  0  0
   -4.9640    0.0530    0.0000 F   0  0  0  0  0  0  0  0  0  0  0  0
   -4.0910   -1.1250    0.0000 F   0  0  0  0  0  0  0  0  0  0  0  0
    0.0540    2.8510    0.0000 C   0  0  0  0  0  0  0  0  0  0  0  0
   -0.2080    2.1630    0.0000 C   0  0  0  0  0  0  0  0  0  0  0  0
    0.2660    1.5990    0.0000 C   0  0  0  0  0  0  0  0  0  0  0  0
    0.9860    1.7230    0.0000 C   0  0  0  0  0  0  0  0  0  0  0  0
    1.2490    2.4200    0.0000 C   0  0  0  0  0  0  0  0  0  0  0  0
    0.7770    2.9890    0.0000 C   0  0  0  0  0  0  0  0  0  0  0  0
    0.0020    0.9000    0.0000 C   0  0  0  0  0  0  0  0  0  0  0  0
    1.0310    3.6720    0.0000 F   0  0  0  0  0  0  0  0  0  0  0  0
  1  2  2  0  0  0  0
  4  5  2  0  0  0  0
  5  1  1  0  0  0  0
  2  3  1  0  0  0  0
  3  6  2  0  0  0  0
  4  6  1  0  0  0  0
  4  7  1  0  0  0  0
  6  8  1  0  0  0  0
 14  1  1  0  0  0  0
  8  9  2  0  0  0  0
  9 10  1  0  0  0  0
 10 11  1  0  0  0  0
 11 12  1  0  0  0  0
 12  8  1  0  0  0  0
 11 13  2  0  0  0  0
 17 18  2  0  0  0  0
 19 21  1  0  0  0  0
 22 23  1  0  0  0  0
 18 19  1  0  0  0  0
 16 17  1  0  0  0  0
 19 20  2  0  0  0  0
 21 22  2  0  0  0  0
 23 24  2  0  0  0  0
 24 25  1  0  0  0  0
 25 21  1  0  0  0  0
 20 15  1  0  0  0  0
 24 27  1  0  0  0  0
 15 16  2  0  0  0  0
 23 26  1  0  0  0  0
 16 28  1  0  0  0  0
 28 29  1  0  0  0  0
 28 30  1  0  0  0  0
 28 31  1  0  0  0  0
 27 14  1  0  0  0  0
 27 38  1  6  0  0  0
 32 33  2  0  0  0  0
 33 34  1  0  0  0  0
 34 35  2  0  0  0  0
 35 36  1  0  0  0  0
 36 37  2  0  0  0  0
 37 32  1  0  0  0  0
 34 38  1  0  0  0  0
 37 39  1  0  0  0  0
M  END
>  <ID_NEW>
CPDPP3124

>  <pEC50>
7.827591429570763

$$$$

  SciTegic12180814002D

 36 40  0  0  0  0            999 V2000
    0.2964   -1.8346    0.0000 C   0  0
   -0.4758   -2.2735    0.0000 C   0  0
   -0.4838   -3.1622    0.0000 C   0  0
    0.2834   -3.6143    0.0000 C   0  0
    1.0611   -3.1680    0.0000 C   0  0
    1.0609   -2.2832    0.0000 C   0  0
    1.8285   -3.6146    0.0000 Cl  0  0
    0.2793   -4.4987    0.0000 C   0  0
    0.3015   -0.9504    0.0000 S   0  0
    1.1859   -0.9551    0.0000 O   0  0
   -0.5879   -0.9490    0.0000 O   0  0
   -1.9972    1.2583    0.0000 C   0  0
   -1.9984    0.3727    0.0000 C   0  0
   -1.2336   -0.0694    0.0000 C   0  0
   -0.4671    0.3731    0.0000 C   0  0
   -0.4700    1.2620    0.0000 C   0  0
   -1.2354    1.7003    0.0000 N   0  0
    0.2929    1.7064    0.0000 O   0  0
    0.2980   -0.0674    0.0000 N   0  0
    1.0630    1.2674    0.0000 C   0  0
   -2.7643    1.7008    0.0000 C   0  0
   -2.7592    2.5839    0.0000 C   0  0
   -3.5254    3.0264    0.0000 C   0  0
   -4.2932    2.5832    0.0000 C   0  0
   -4.2900    1.6930    0.0000 C   0  0
   -3.5232    1.2546    0.0000 C   0  0
   -5.0618    3.0252    0.0000 C   0  0
   -4.6208    3.8000    0.0000 F   0  0
   -5.5083    2.2583    0.0000 F   0  0
   -5.8333    3.4750    0.0000 F   0  0
    1.0583    0.3750    0.0000 C   0  0
   -0.4365   -5.0178    0.0000 N   0  0
   -0.1671   -5.8602    0.0000 O   0  0
    0.7174   -5.8643    0.0000 C   0  0
    0.9945   -5.0245    0.0000 N   0  0
    1.1583   -6.6250    0.0000 O   0  0
  1  2  2  0
  2  3  1  0
  3  4  2  0
  4  5  1  0
  5  6  2  0
  6  1  1  0
  5  7  1  0
  4  8  1  0
  1  9  1  0
  9 10  2  0
  9 11  2  0
 12 13  2  0
 13 14  1  0
 14 15  2  0
 15 16  1  0
 16 17  2  0
 17 12  1  0
 16 18  1  0
 15 19  1  0
 18 20  1  0
 12 21  1  0
 21 22  2  0
 22 23  1  0
 23 24  2  0
 24 25  1  0
 25 26  2  0
 26 21  1  0
 24 27  1  0
 27 28  1  0
 27 29  1  0
 27 30  1  0
 19 31  1  0
 20 31  1  0
 19  9  1  0
  8 32  2  0
 32 33  1  0
 33 34  1  0
 34 35  1  0
 35  8  1  0
 34 36  2  0
M  END
>  <ID_NEW>
CPDPP3125

>  <pEC50>
7.82651923297472

$$$$

  SciTegic12180812332D

 35 38  0  0  0  0            999 V2000
   -0.4389    1.8009    0.0000 C   0  0
   -0.8566    1.3328    0.0000 C   0  0
   -0.6579    0.7376    0.0000 C   0  0
   -0.0451    0.6120    0.0000 C   0  0
    0.3718    1.0851    0.0000 C   0  0
    0.1733    1.6752    0.0000 C   0  0
    0.5875    2.1433    0.0000 C   0  0
    1.1999    2.0186    0.0000 N   0  0
    0.3893    2.7360    0.0000 N   0  0
   -1.0725    0.2699    0.0000 O   0  0
   -1.6849    0.3952    0.0000 C   0  0
   -2.0995   -0.0725    0.0000 C   0  0
   -2.7209   -0.0124    0.0000 S   0  0
   -2.9711   -0.5859    0.0000 C   0  0
   -2.5022   -1.0004    0.0000 N   0  0
   -1.9637   -0.6816    0.0000 C   0  0
   -1.3901   -0.9299    0.0000 C   0  0
   -1.3183   -1.5508    0.0000 C   0  0
   -0.7447   -1.7990    0.0000 C   0  0
   -0.6730   -2.4199    0.0000 C   0  0
   -3.5814   -0.7209    0.0000 C   0  0
   -4.0035   -0.2608    0.0000 C   0  0
   -4.6132   -0.3955    0.0000 C   0  0
   -4.7981   -0.9920    0.0000 C   0  0
   -4.3762   -1.4540    0.0000 C   0  0
   -3.7680   -1.3169    0.0000 C   0  0
   -5.4047   -1.1278    0.0000 C   0  0
   -5.8320   -0.6674    0.0000 F   0  0
   -5.5923   -1.7241    0.0000 F   0  0
   -5.3814   -0.5034    0.0000 F   0  0
    0.8035    3.2040    0.0000 C   0  0
    0.6052    3.7968    0.0000 O   0  0
    1.4159    3.0793    0.0000 O   0  0
    0.9845    0.9616    0.0000 S   0  0
    1.1839    0.3692    0.0000 C   0  0
  7  9  1  0
  3 10  1  0
 10 11  1  0
 11 12  1  0
 13 14  1  0
 12 13  1  0
 14 15  2  0
 15 16  1  0
 16 12  2  0
 16 17  1  0
 17 18  1  0
 18 19  1  0
 19 20  1  0
 14 21  1  0
 21 22  2  0
 22 23  1  0
 23 24  2  0
 24 25  1  0
 25 26  2  0
 26 21  1  0
 24 27  1  0
 27 28  1  0
 27 29  1  0
 27 30  1  0
  9 31  1  0
 31 32  2  0
 31 33  1  0
  1  2  2  0
  2  3  1  0
  3  4  2  0
  4  5  1  0
  5  6  2  0
  6  1  1  0
  6  7  1  0
  7  8  2  0
  8 33  1  0
  5 34  1  0
 34 35  1  0
M  END
>  <ID_NEW>
CPDPP3126

>  <pEC50>
7.8242618834032065

$$$$

  SciTegic12180813072D

 36 39  0  0  0  0            999 V2000
    2.6913   -4.9999    0.0000 C   0  0
    2.1687   -4.3615    0.0000 C   0  0
    2.4561   -3.5897    0.0000 C   0  0
    3.2695   -3.4535    0.0000 C   0  0
    3.7947   -4.0950    0.0000 C   0  0
    3.5073   -4.8669    0.0000 C   0  0
    1.3496   -4.4972    0.0000 C   0  0
    4.6139   -3.9595    0.0000 C   0  0
    1.0047   -3.7475    0.0000 F   0  0
    0.5692   -4.7723    0.0000 F   0  0
    1.5536   -5.2998    0.0000 F   0  0
    4.9825   -3.2213    0.0000 S   0  0
    5.8006   -3.3421    0.0000 C   0  0
    5.9358   -4.1607    0.0000 C   0  0
    5.2029   -4.5384    0.0000 N   0  0
    6.6749   -4.5305    0.0000 C   0  0
    6.3800   -2.7535    0.0000 C   0  0
    7.1816   -2.9614    0.0000 O   0  0
    6.1609   -1.9544    0.0000 C   0  0
    6.8723   -1.5375    0.0000 F   0  0
    5.8067   -1.2094    0.0000 F   0  0
    5.3861   -2.2463    0.0000 F   0  0
    9.2232   -4.9754    0.0000 C   0  0
    8.4215   -4.7675    0.0000 C   0  0
    8.2024   -3.9684    0.0000 C   0  0
    8.7818   -3.3799    0.0000 N   0  0
    9.5834   -3.5878    0.0000 C   0  0
    9.8025   -4.3869    0.0000 C   0  0
   10.6042   -4.5948    0.0000 C   0  0
   10.1628   -2.9993    0.0000 Cl  0  0
    7.4007   -3.7605    0.0000 C   0  0
   10.9105   -5.3643    0.0000 N   0  0
   11.7372   -5.3143    0.0000 O   0  0
   11.9451   -4.5125    0.0000 C   0  0
   11.2468   -4.0672    0.0000 N   0  0
   12.7375   -4.2917    0.0000 O   0  0
  8 12  1  0
  5  6  2  0
  6  1  1  0
  1  2  2  0
  2  7  1  0
 12 13  1  0
 13 14  2  0
 14 15  1  0
 15  8  2  0
  3  4  2  0
 14 16  1  0
 19 20  1  0
 19 21  1  0
 19 22  1  0
  5  8  1  0
 13 17  1  0
 17 18  1  0
 23 24  2  0
 24 25  1  0
 25 26  2  0
 26 27  1  0
 27 28  2  0
 28 23  1  0
 28 29  1  0
 27 30  1  0
 25 31  1  0
 18 31  1  0
  7  9  1  0
 17 19  1  0
 29 32  2  0
  4  5  1  0
  7 10  1  0
  2  3  1  0
 32 33  1  0
 33 34  1  0
 34 35  1  0
 35 29  1  0
  7 11  1  0
 34 36  2  0
M  END
>  <ID_NEW>
CPDPP3127

>  <pEC50>
7.813168282180384

$$$$

  -MTS-   10172316532D 0   0.00000     0.00000     0

 35 38  0  0  1  0  0  0  0  0999 V2000
    6.1100   -5.0680    0.0000 C   0  0  0  0  0  0  0  0  0  0  0  0
    3.8460   -4.2310    0.0000 C   0  0  0  0  0  0  0  0  0  0  0  0
    3.4490   -4.2890    0.0000 C   0  0  0  0  0  0  0  0  0  0  0  0
    4.0680   -3.8830    0.0000 S   0  0  0  0  0  0  0  0  0  0  0  0
    4.1170   -4.5410    0.0000 N   0  0  0  0  0  0  0  0  0  0  0  0
    3.2920   -4.6610    0.0000 C   0  0  0  0  0  0  0  0  0  0  0  0
    3.2030   -3.9610    0.0000 C   0  0  0  0  0  0  0  0  0  0  0  0
    4.4600   -3.9760    0.0000 C   0  0  0  0  0  0  0  0  0  0  0  0
    4.4930   -4.3940    0.0000 C   0  0  0  0  0  0  0  0  0  0  0  0
    2.8900   -4.7190    0.0000 C   0  0  0  0  0  0  0  0  0  0  0  0
    2.7840   -4.0150    0.0000 C   0  0  0  0  0  0  0  0  0  0  0  0
    4.7790   -3.7060    0.0000 C   0  0  1  0  0  0  0  0  0  0  0  0
    4.8530   -4.6260    0.0000 C   0  0  0  0  0  0  0  0  0  0  0  0
    2.6440   -4.3880    0.0000 C   0  0  0  0  0  0  0  0  0  0  0  0
    5.1590   -3.8450    0.0000 O   0  0  0  0  0  0  0  0  0  0  0  0
    2.2410   -4.4440    0.0000 C   0  0  0  0  0  0  0  0  0  0  0  0
    1.8370   -4.4760    0.0000 F   0  0  0  0  0  0  0  0  0  0  0  0
    2.2750   -4.8440    0.0000 F   0  0  0  0  0  0  0  0  0  0  0  0
    2.2080   -4.0370    0.0000 F   0  0  0  0  0  0  0  0  0  0  0  0
    5.5710   -3.8420    0.0000 C   0  0  0  0  0  0  0  0  0  0  0  0
    5.7770   -4.1940    0.0000 C   0  0  0  0  0  0  0  0  0  0  0  0
    6.1710   -4.1950    0.0000 C   0  0  0  0  0  0  0  0  0  0  0  0
    6.3770   -3.8440    0.0000 C   0  0  0  0  0  0  0  0  0  0  0  0
    6.1720   -3.4820    0.0000 C   0  0  0  0  0  0  0  0  0  0  0  0
    5.7750   -3.4830    0.0000 C   0  0  0  0  0  0  0  0  0  0  0  0
    6.3770   -4.5380    0.0000 O   0  0  0  0  0  0  0  0  0  0  0  0
    6.7900   -3.8450    0.0000 C   0  0  0  0  0  0  0  0  0  0  0  0
    6.9880   -4.1920    0.0000 N   0  0  0  0  0  0  0  0  0  0  0  0
    6.9890   -3.4810    0.0000 N   0  0  0  0  0  0  0  0  0  0  0  0
    7.4640   -3.5950    0.0000 O   0  0  0  0  0  0  0  0  0  0  0  0
    7.4660   -4.0700    0.0000 C   0  0  0  0  0  0  0  0  0  0  0  0
    7.7320   -4.3090    0.0000 O   0  0  0  0  0  0  0  0  0  0  0  0
    5.5740   -3.1420    0.0000 F   0  0  0  0  0  0  0  0  0  0  0  0
    4.7100   -3.2910    0.0000 C   0  0  0  0  0  0  0  0  0  0  0  0
    5.0310   -3.0230    0.0000 C   0  0  0  0  0  0  0  0  0  0  0  0
 10 14  1  0  0  0  0
 12 15  1  0  0  0  0
 14 16  1  0  0  0  0
 16 17  1  0  0  0  0
 16 18  1  0  0  0  0
 16 19  1  0  0  0  0
  8  9  2  0  0  0  0
 11 14  2  0  0  0  0
 15 20  1  0  0  0  0
 20 21  2  0  0  0  0
 21 22  1  0  0  0  0
 22 23  2  0  0  0  0
 23 24  1  0  0  0  0
  2  3  1  0  0  0  0
 24 25  2  0  0  0  0
 25 20  1  0  0  0  0
  2  4  1  0  0  0  0
 22 26  1  0  0  0  0
 26  1  1  0  0  0  0
  2  5  2  0  0  0  0
 23 27  1  0  0  0  0
  3  6  1  0  0  0  0
 27 28  1  0  0  0  0
  3  7  2  0  0  0  0
 27 29  2  0  0  0  0
  4  8  1  0  0  0  0
 29 30  1  0  0  0  0
  5  9  1  0  0  0  0
 28 31  1  0  0  0  0
  6 10  2  0  0  0  0
 31 32  2  0  0  0  0
 30 31  1  0  0  0  0
  7 11  1  0  0  0  0
 25 33  1  0  0  0  0
  8 12  1  0  0  0  0
 12 34  1  6  0  0  0
  9 13  1  0  0  0  0
 34 35  1  0  0  0  0
M  END
>  <ID_NEW>
CPDPP3128

>  <pEC50>
7.812979027599006

$$$$

  SciTegic12180812332D

 33 36  0  0  0  0            999 V2000
   -0.9431    2.7042    0.0000 C   0  0
   -0.9443    2.0769    0.0000 C   0  0
   -0.4003    1.7640    0.0000 C   0  0
    0.1412    2.0773    0.0000 C   0  0
    0.1383    2.7079    0.0000 C   0  0
   -0.4021    3.0170    0.0000 C   0  0
    0.6782    3.0227    0.0000 C   0  0
    0.8333    3.6292    0.0000 N   0  0
    1.4351    3.7979    0.0000 O   0  0
    1.1771    2.6461    0.0000 N   0  0
   -1.4855    1.7644    0.0000 S   0  0
   -1.4856    1.1394    0.0000 C   0  0
   -2.0269    0.8270    0.0000 C   0  0
   -2.8477    0.8663    0.0000 S   0  0
   -2.9719    0.2856    0.0000 C   0  0
   -2.5004    0.0110    0.0000 N   0  0
   -2.0242    0.2804    0.0000 C   0  0
   -1.5509    0.0060    0.0000 C   0  0
   -1.5519   -0.5412    0.0000 C   0  0
   -1.0785   -0.8157    0.0000 C   0  0
   -1.0796   -1.3628    0.0000 C   0  0
   -3.5762    0.1262    0.0000 C   0  0
   -4.0168    0.5675    0.0000 C   0  0
   -4.6206    0.4085    0.0000 C   0  0
   -4.7853   -0.1951    0.0000 C   0  0
   -4.3413   -0.6397    0.0000 C   0  0
   -3.7392   -0.4783    0.0000 C   0  0
   -5.3894   -0.3553    0.0000 C   0  0
   -5.8302    0.0878    0.0000 F   0  0
   -5.5527   -0.9586    0.0000 F   0  0
   -5.3878    0.2697    0.0000 F   0  0
    1.7750    2.8125    0.0000 C   0  0
    2.3125    2.5000    0.0000 O   0  0
 28 30  1  0
 28 31  1  0
  1  2  2  0
  2  3  1  0
  3  4  2  0
  4  5  1  0
  5  6  2  0
  6  1  1  0
  5  7  1  0
  7  8  2  0
 10 32  1  0
 32 33  2  0
 32  9  1  0
  8  9  1  0
  7 10  1  0
  2 11  1  0
 11 12  1  0
 12 13  1  0
 13 14  1  0
 15 16  2  0
 16 17  1  0
 17 13  2  0
 14 15  1  0
 17 18  1  0
 18 19  1  0
 19 20  1  0
 20 21  1  0
 15 22  1  0
 22 23  2  0
 23 24  1  0
 24 25  2  0
 25 26  1  0
 26 27  2  0
 27 22  1  0
 25 28  1  0
 28 29  1  0
M  END
>  <ID_NEW>
CPDPP3129

>  <pEC50>
7.805103921206258

$$$$

  -MTS-   10172316532D 0   0.00000     0.00000     0

 35 38  0  0  1  0  0  0  0  0999 V2000
   -3.7200    0.9780    0.0000 C   0  0  0  0  0  0  0  0  0  0  0  0
   -3.7260    0.2540    0.0000 C   0  0  0  0  0  0  0  0  0  0  0  0
   -3.0980   -0.1170    0.0000 N   0  0  0  0  0  0  0  0  0  0  0  0
   -2.4530    0.2550    0.0000 C   0  0  0  0  0  0  0  0  0  0  0  0
   -2.4550    0.9850    0.0000 C   0  0  0  0  0  0  0  0  0  0  0  0
   -3.0960    1.3530    0.0000 C   0  0  0  0  0  0  0  0  0  0  0  0
   -4.3570   -0.1070    0.0000 C   0  0  0  0  0  0  0  0  0  0  0  0
   -4.9840    0.2550    0.0000 F   0  0  0  0  0  0  0  0  0  0  0  0
   -4.3580   -0.8490    0.0000 F   0  0  0  0  0  0  0  0  0  0  0  0
   -4.5490    0.5890    0.0000 F   0  0  0  0  0  0  0  0  0  0  0  0
   -1.8300    1.3590    0.0000 C   0  0  0  0  0  0  0  0  0  0  0  0
   -1.1550    1.0620    0.0000 S   0  0  0  0  0  0  0  0  0  0  0  0
   -0.6760    1.6110    0.0000 C   0  0  0  0  0  0  0  0  0  0  0  0
   -1.0450    2.2400    0.0000 C   0  0  0  0  0  0  0  0  0  0  0  0
   -1.7560    2.0820    0.0000 N   0  0  0  0  0  0  0  0  0  0  0  0
   -0.7420    2.9120    0.0000 C   0  0  0  0  0  0  0  0  0  0  0  0
    0.0530    1.5360    0.0000 C   0  0  1  0  0  0  0  0  0  0  0  0
    0.3460    0.8670    0.0000 O   0  0  0  0  0  0  0  0  0  0  0  0
    0.4860    2.1220    0.0000 C   0  0  0  0  0  0  0  0  0  0  0  0
    1.2110    2.0470    0.0000 F   0  0  0  0  0  0  0  0  0  0  0  0
    0.1850    2.7870    0.0000 F   0  0  0  0  0  0  0  0  0  0  0  0
    0.8390    2.7610    0.0000 F   0  0  0  0  0  0  0  0  0  0  0  0
    1.7190    1.6500    0.0000 C   0  0  0  0  0  0  0  0  0  0  0  0
    1.7180    0.8640    0.0000 C   0  0  0  0  0  0  0  0  0  0  0  0
    2.3910    0.4720    0.0000 C   0  0  0  0  0  0  0  0  0  0  0  0
    3.0740    0.8650    0.0000 C   0  0  0  0  0  0  0  0  0  0  0  0
    3.0720    1.6540    0.0000 C   0  0  0  0  0  0  0  0  0  0  0  0
    2.3900    2.0380    0.0000 C   0  0  0  0  0  0  0  0  0  0  0  0
    1.0330    0.4730    0.0000 C   0  0  0  0  0  0  0  0  0  0  0  0
    3.7470    2.0400    0.0000 C   0  0  0  0  0  0  0  0  0  0  0  0
    4.4630    1.7320    0.0000 N   0  0  0  0  0  0  0  0  0  0  0  0
    4.9720    2.3110    0.0000 O   0  0  0  0  0  0  0  0  0  0  0  0
    4.5860    2.9950    0.0000 C   0  0  0  0  0  0  0  0  0  0  0  0
    3.8230    2.8290    0.0000 N   0  0  0  0  0  0  0  0  0  0  0  0
    4.9670    3.6750    0.0000 O   0  0  0  0  0  0  0  0  0  0  0  0
 15 11  2  0  0  0  0
 14 16  1  0  0  0  0
 13 17  1  0  0  0  0
 17 18  1  0  0  0  0
 17 19  1  6  0  0  0
  1  2  2  0  0  0  0
 19 20  1  0  0  0  0
  2  7  1  0  0  0  0
 19 21  1  0  0  0  0
  3  4  2  0  0  0  0
 19 22  1  0  0  0  0
  7  8  1  0  0  0  0
  7  9  1  0  0  0  0
  4  5  1  0  0  0  0
  7 10  1  0  0  0  0
  2  3  1  0  0  0  0
  5 11  1  0  0  0  0
  5  6  2  0  0  0  0
  6  1  1  0  0  0  0
 24 29  1  0  0  0  0
 24 25  1  0  0  0  0
 27 30  1  0  0  0  0
 25 26  2  0  0  0  0
 26 27  1  0  0  0  0
 23 24  2  0  0  0  0
 27 28  2  0  0  0  0
 28 23  1  0  0  0  0
 29 18  1  0  0  0  0
 30 31  2  0  0  0  0
 11 12  1  0  0  0  0
 12 13  1  0  0  0  0
 13 14  2  0  0  0  0
 31 32  1  0  0  0  0
 32 33  1  0  0  0  0
 33 34  1  0  0  0  0
 34 30  1  0  0  0  0
 14 15  1  0  0  0  0
 33 35  2  0  0  0  0
M  END
>  <ID_NEW>
CPDPP3130

>  <pEC50>
7.804354595199503

$$$$

  SciTegic12180813062D

 41 43  0  0  0  0            999 V2000
    0.8424   -6.4302    0.0000 N   0  0
    1.6674   -6.4302    0.0000 N   0  0
    1.9272   -5.6460    0.0000 C   0  0
    1.2549   -5.1593    0.0000 S   0  0
    0.5949   -5.6460    0.0000 C   0  0
    2.7173   -5.3922    0.0000 N   0  0
   -0.1895   -5.3906    0.0000 C   0  0
   -0.3605   -4.5835    0.0000 C   0  0
   -0.8030   -5.9422    0.0000 C   0  0
    3.7526   -4.3868    0.0000 S   0  0
    5.0371   -5.0175    0.0000 O   0  0
    3.5186   -2.9698    0.0000 O   0  0
    4.8891   -3.5273    0.0000 C   0  0
    7.0305   -2.2811    0.0000 C   0  0
    6.6709   -1.5386    0.0000 C   0  0
    7.1341   -0.8559    0.0000 C   0  0
    6.7745   -0.1134    0.0000 O   0  0
    7.2377    0.5693    0.0000 C   0  0
    6.8781    1.3104    0.0000 C   0  0
    4.8903   -2.6999    0.0000 C   0  0
    5.6040   -3.9402    0.0000 C   0  0
    6.3204   -3.5268    0.0000 C   0  0
    6.3175   -2.6963    0.0000 C   0  0
    5.6022   -2.2872    0.0000 C   0  0
    7.7465   -2.6909    0.0000 C   0  0
    8.4594   -2.2757    0.0000 N   0  0
   11.3347   -2.3084    0.0000 C   0  0
   11.3359   -3.1358    0.0000 C   0  0
   10.6211   -3.5486    0.0000 C   0  0
    9.9046   -3.1353    0.0000 C   0  0
    9.9075   -2.3048    0.0000 C   0  0
   10.6229   -1.8956    0.0000 C   0  0
    9.1946   -1.8896    0.0000 C   0  0
    9.1977   -1.0646    0.0000 O   0  0
   12.0507   -3.5477    0.0000 C   0  0
   12.7648   -3.1346    0.0000 F   0  0
   12.0513   -4.3727    0.0000 F   0  0
   12.2636   -2.7507    0.0000 F   0  0
    9.1895   -3.5467    0.0000 O   0  0
    9.1882   -4.3717    0.0000 C   0  0
    8.4731   -4.7831    0.0000 C   0  0
 16 17  1  0
 17 18  1  0
 18 19  1  0
 20 13  2  0
 13 21  1  0
 21 22  2  0
 22 23  1  0
 23 24  2  0
 24 20  1  0
 23 14  1  0
 14 25  1  0
 25 26  1  0
  1  2  1  0
  2  3  2  0
  3  4  1  0
  4  5  1  0
  5  1  2  0
  3  6  1  0
  5  7  1  0
  7  8  1  0
  7  9  1  0
 10 11  2  0
 10  6  1  0
 10 12  2  0
 10 13  1  0
 14 15  1  0
 15 16  1  0
 31 33  1  0
 30 31  1  0
 28 29  1  0
 33 34  2  0
 31 32  2  0
 32 27  1  0
 27 28  2  0
 28 35  1  0
 35 36  1  0
 35 37  1  0
 30 39  1  0
 29 30  2  0
 39 40  1  0
 35 38  1  0
 40 41  1  0
 26 33  1  0
M  END
>  <ID_NEW>
CPDPP3131

>  <pEC50>
7.80253088980391

$$$$

  SciTegic12180814002D

 41 45  0  0  0  0            999 V2000
    0.2834   -4.4946    0.0000 C   0  0
   -0.4436   -4.9903    0.0000 N   0  0
   -0.1964   -5.8376    0.0000 O   0  0
    0.6858   -5.8642    0.0000 C   0  0
    0.9836   -5.0335    0.0000 N   0  0
    1.2165   -6.5625    0.0000 O   0  0
    0.2964   -1.8346    0.0000 C   0  0
   -0.4758   -2.2735    0.0000 C   0  0
   -0.4838   -3.1622    0.0000 C   0  0
    0.2834   -3.6143    0.0000 C   0  0
    1.0611   -3.1680    0.0000 C   0  0
    1.0609   -2.2832    0.0000 C   0  0
    1.8285   -3.6146    0.0000 C   0  0
    0.3015   -0.9504    0.0000 S   0  0
    1.1859   -0.9551    0.0000 O   0  0
   -0.5879   -0.9490    0.0000 O   0  0
   -1.9972    1.2583    0.0000 C   0  0
   -1.9984    0.3727    0.0000 C   0  0
   -1.2336   -0.0694    0.0000 C   0  0
   -0.4671    0.3731    0.0000 C   0  0
   -0.4700    1.2620    0.0000 C   0  0
   -1.2354    1.7003    0.0000 C   0  0
    0.2929    1.7064    0.0000 C   0  0
    0.2980   -0.0674    0.0000 N   0  0
    1.0630    1.2674    0.0000 C   0  0
   -2.7643    1.7008    0.0000 C   0  0
   -2.7592    2.5839    0.0000 C   0  0
   -3.5254    3.0264    0.0000 C   0  0
   -4.2932    2.5832    0.0000 C   0  0
   -4.2900    1.6930    0.0000 C   0  0
   -3.5232    1.2546    0.0000 C   0  0
   -5.0618    3.0252    0.0000 C   0  0
   -4.6208    3.8000    0.0000 F   0  0
   -5.5083    2.2583    0.0000 F   0  0
   -5.8333    3.4750    0.0000 F   0  0
    1.0583    0.3750    0.0000 C   0  0
    1.5042    2.0417    0.0000 C   0  0
    1.9500    1.2708    0.0000 C   0  0
    2.5990   -3.1733    0.0000 C   0  0
    3.3664   -3.6199    0.0000 C   0  0
    2.6020   -2.2854    0.0000 C   0  0
 11 12  2  0
 12  7  1  0
 11 13  1  0
 10  1  1  0
  7 14  1  0
 14 15  2  0
 14 16  2  0
 17 18  2  0
 18 19  1  0
 19 20  2  0
 20 21  1  0
 21 22  2  0
 22 17  1  0
 21 23  1  0
 20 24  1  0
 23 25  1  0
 17 26  1  0
 26 27  2  0
 27 28  1  0
 28 29  2  0
 29 30  1  0
 30 31  2  0
 31 26  1  0
 29 32  1  0
 32 33  1  0
 32 34  1  0
 32 35  1  0
 24 36  1  0
 25 36  1  0
 24 14  1  0
 25 37  1  0
 25 38  1  0
  1  2  2  0
  2  3  1  0
  3  4  1  0
  4  5  1  0
  5  1  1  0
  4  6  2  0
  7  8  2  0
  8  9  1  0
  9 10  2  0
 10 11  1  0
 13 39  1  0
 39 40  1  0
 39 41  1  0
M  END
>  <ID_NEW>
CPDPP3132

>  <pEC50>
7.794808774840316

$$$$

  SciTegic12180812562D

 33 37  0  0  0  0            999 V2000
    6.9758   -1.7258    0.0000 C   0  0
    6.9828   -2.4090    0.0000 C   0  0
    7.5770   -2.7488    0.0000 C   0  0
    8.1684   -2.4052    0.0000 C   0  0
    8.1656   -1.7178    0.0000 C   0  0
    7.5672   -1.3780    0.0000 C   0  0
    6.3873   -2.7568    0.0000 O   0  0
    8.7626   -2.7451    0.0000 Cl  0  0
    8.7569   -1.3742    0.0000 C   0  0
    3.2294   -4.9192    0.0000 C   0  0
    3.6333   -5.4703    0.0000 C   0  0
    4.3160   -5.3941    0.0000 C   0  0
    4.5947   -4.7667    0.0000 C   0  0
    4.1866   -4.2157    0.0000 C   0  0
    3.5081   -4.2878    0.0000 C   0  0
    4.4611   -3.5884    0.0000 C   0  0
    5.1311   -3.4447    0.0000 N   0  0
    5.2017   -2.7605    0.0000 C   0  0
    4.5744   -2.4860    0.0000 C   0  0
    4.1176   -2.9970    0.0000 O   0  0
    4.4266   -1.8160    0.0000 C   0  0
    5.7931   -2.4128    0.0000 C   0  0
    3.3588   -6.0977    0.0000 C   0  0
    2.6760   -6.1739    0.0000 C   0  0
    2.4015   -6.7970    0.0000 C   0  0
    2.8055   -7.3522    0.0000 C   0  0
    3.4882   -7.2760    0.0000 C   0  0
    3.7628   -6.6487    0.0000 C   0  0
    9.3799   -1.6503    0.0000 N   0  0
    9.8361   -1.1408    0.0000 O   0  0
    9.4924   -0.5494    0.0000 C   0  0
    8.8239   -0.6935    0.0000 N   0  0
    9.6667    0.1167    0.0000 O   0  0
  6  1  1  0
  1  2  2  0
  2  7  1  0
  3  4  2  0
  4  8  1  0
 15 10  1  0
 17 18  1  0
 18 19  2  0
 19 20  1  0
 20 16  1  0
 10 11  2  0
 19 21  1  0
 18 22  1  0
 12 13  2  0
 11 23  1  0
 14 16  1  0
 23 24  2  0
 16 17  2  0
 24 25  1  0
 13 14  1  0
 25 26  2  0
 11 12  1  0
 26 27  1  0
 14 15  2  0
 27 28  2  0
 28 23  1  0
  7 22  1  0
  9 29  2  0
  5  9  1  0
  4  5  1  0
  2  3  1  0
 29 30  1  0
 30 31  1  0
 31 32  1  0
 32  9  1  0
  5  6  2  0
 31 33  2  0
M  END
>  <ID_NEW>
CPDPP3133

>  <pEC50>
7.78331132046842

$$$$

  SciTegic12180813062D

 33 36  0  0  0  0            999 V2000
   -1.8556    2.6625    0.0000 C   0  0
   -1.8568    2.2143    0.0000 C   0  0
   -1.4628    1.9890    0.0000 C   0  0
   -1.0755    2.2148    0.0000 C   0  0
   -1.0784    2.6662    0.0000 C   0  0
   -1.4646    2.8836    0.0000 C   0  0
   -0.6926    2.8902    0.0000 C   0  0
   -0.2997    2.6713    0.0000 N   0  0
   -0.6874    1.9904    0.0000 O   0  0
   -3.6420    1.5875    0.0000 C   0  0
   -4.0867    1.5276    0.0000 C   0  0
   -3.4070    1.9731    0.0000 S   0  0
   -3.3549    1.2506    0.0000 N   0  0
   -4.2563    1.1241    0.0000 C   0  0
   -4.3471    1.8866    0.0000 C   0  0
   -2.9704    1.8702    0.0000 C   0  0
   -2.9415    1.4087    0.0000 C   0  0
   -4.6899    1.0648    0.0000 C   0  0
   -4.7959    1.8240    0.0000 C   0  0
   -2.6346    2.1587    0.0000 C   0  0
   -2.5672    1.1601    0.0000 C   0  0
   -4.9611    1.4227    0.0000 C   0  0
   -2.2208    2.0154    0.0000 O   0  0
   -5.3942    1.3715    0.0000 C   0  0
   -5.8302    1.3329    0.0000 F   0  0
   -5.3564    0.9322    0.0000 F   0  0
   -5.4357    1.8043    0.0000 F   0  0
   -0.6955    3.3416    0.0000 N   0  0
   -0.2514    3.4156    0.0000 C   0  0
    0.0292    3.0708    0.0000 O   0  0
   -0.0943    3.8315    0.0000 O   0  0
   -2.7174    2.5936    0.0000 C   0  0
   -2.3821    2.8827    0.0000 C   0  0
 20 32  1  0
  5  7  1  0
 32 33  1  0
  1  2  2  0
  7  8  2  0
  4  9  1  0
  2  3  1  0
  3  4  2  0
 10 11  1  0
 10 12  1  0
 10 13  2  0
 11 14  1  0
 11 15  2  0
 12 16  1  0
 13 17  1  0
 14 18  2  0
 15 19  1  0
 16 20  1  0
 17 21  1  0
 18 22  1  0
 20 23  1  0
 22 24  1  0
 24 25  1  0
 24 26  1  0
 24 27  1  0
 16 17  2  0
 19 22  2  0
  2 23  1  0
  4  5  1  0
  7 28  1  0
 28 29  1  0
  5  6  2  0
  8 30  1  0
 29 30  1  0
  6  1  1  0
 29 31  2  0
M  END
>  <ID_NEW>
CPDPP3134

>  <pEC50>
7.777003730166544

$$$$

  SciTegic12180812322D

 39 42  0  0  0  0            999 V2000
    4.5838   -3.0973    0.0000 C   0  0
    4.1036   -3.1562    0.0000 C   0  0
    4.8431   -2.6747    0.0000 S   0  0
    4.9001   -3.4618    0.0000 N   0  0
    3.9174   -3.6024    0.0000 C   0  0
    3.8195   -2.7697    0.0000 C   0  0
    5.3143   -2.7840    0.0000 C   0  0
    5.3515   -3.2901    0.0000 C   0  0
    3.4401   -3.6645    0.0000 C   0  0
    3.3298   -2.8356    0.0000 C   0  0
    5.6837   -2.4681    0.0000 C   0  0
    5.7574   -3.5591    0.0000 C   0  0
    3.1483   -3.2755    0.0000 C   0  0
    6.2093   -2.6529    0.0000 O   0  0
    2.6744   -3.3312    0.0000 C   0  0
    2.1959   -3.3719    0.0000 F   0  0
    2.7207   -3.8110    0.0000 F   0  0
    2.6289   -2.8621    0.0000 F   0  0
    5.7261   -4.0483    0.0000 N   0  0
    5.2878   -4.2634    0.0000 C   0  0
    6.1290   -4.3193    0.0000 C   0  0
    5.2567   -4.7496    0.0000 C   0  0
    5.6584   -5.0173    0.0000 O   0  0
    6.0932   -4.8015    0.0000 C   0  0
    5.6542   -5.5042    0.0000 C   0  0
    6.7262   -2.8231    0.0000 C   0  0
    6.8375   -3.3573    0.0000 C   0  0
    7.3537   -3.5276    0.0000 C   0  0
    7.7615   -3.1623    0.0000 C   0  0
    7.6447   -2.6282    0.0000 C   0  0
    7.1287   -2.4610    0.0000 C   0  0
    7.4672   -4.0581    0.0000 O   0  0
    7.0646   -4.4225    0.0000 C   0  0
    8.2794   -3.3318    0.0000 C   0  0
    8.3943   -3.8635    0.0000 N   0  0
    8.6863   -2.9656    0.0000 N   0  0
    9.2042   -3.1352    0.0000 O   0  0
    9.0667   -3.8292    0.0000 C   0  0
    9.5346   -4.3631    0.0000 O   0  0
  1  2  1  0
  1  3  1  0
  1  4  2  0
  2  5  1  0
  2  6  2  0
  3  7  1  0
  4  8  1  0
  5  9  2  0
  6 10  1  0
  7 11  1  0
  8 12  1  0
  9 13  1  0
 11 14  1  0
 13 15  1  0
 15 16  1  0
 15 17  1  0
 15 18  1  0
  7  8  2  0
 10 13  2  0
 12 19  1  0
 19 20  1  0
 19 21  1  0
 20 22  1  0
 22 23  1  0
 21 24  1  0
 23 25  1  0
 14 26  1  0
 26 27  2  0
 27 28  1  0
 28 29  2  0
 29 30  1  0
 30 31  2  0
 31 26  1  0
 28 32  1  0
 32 33  1  0
 29 34  1  0
 34 35  1  0
 34 36  2  0
 36 37  1  0
 35 38  1  0
 38 37  1  0
 38 39  2  0
M  END
>  <ID_NEW>
CPDPP3135

>  <pEC50>
7.775421250414905

$$$$

  SciTegic12180813072D

 37 40  0  0  0  0            999 V2000
    2.5102    2.5907    0.0000 C   0  0
    2.5134    1.9508    0.0000 S   0  0
    3.1220    2.7956    0.0000 N   0  0
    3.4971    2.2862    0.0000 N   0  0
    3.1297    1.7615    0.0000 C   0  0
    3.3441    1.1535    0.0000 C   0  0
    2.9262    0.6696    0.0000 C   0  0
    3.9681    1.0381    0.0000 C   0  0
    1.9464    2.9109    0.0000 N   0  0
    1.3929    2.5824    0.0000 S   0  0
    0.8308    2.2529    0.0000 C   0  0
    1.0633    3.1394    0.0000 O   0  0
    1.7177    2.0198    0.0000 O   0  0
    0.8315    1.6131    0.0000 C   0  0
    0.2756    2.5760    0.0000 C   0  0
    0.2769    1.2898    0.0000 C   0  0
   -0.2791    1.6133    0.0000 C   0  0
   -0.2771    2.2527    0.0000 C   0  0
   -0.8876    2.4532    0.0000 C   0  0
   -1.2612    1.9363    0.0000 C   0  0
   -0.8867    1.4169    0.0000 C   0  0
    1.3949    1.2904    0.0000 Cl  0  0
   -1.9028    1.9425    0.0000 N   0  0
   -2.4545    2.2729    0.0000 C   0  0
   -2.4489    2.9179    0.0000 O   0  0
   -4.1409    3.2363    0.0000 C   0  0
   -4.6981    2.9133    0.0000 C   0  0
   -4.6958    2.2707    0.0000 C   0  0
   -4.1313    1.9487    0.0000 C   0  0
   -3.5791    2.2783    0.0000 C   0  0
   -3.5850    2.9194    0.0000 C   0  0
   -5.2676    3.2299    0.0000 C   0  0
   -3.0210    1.9511    0.0000 N   0  0
   -5.8331    3.5484    0.0000 F   0  0
   -4.9497    3.7973    0.0000 F   0  0
   -5.5852    2.6678    0.0000 F   0  0
   -4.1200    1.3020    0.0000 Cl  0  0
 10  9  1  0
 14 11  2  0
 11 15  1  0
 15 18  2  0
 17 16  2  0
 16 14  1  0
 17 18  1  0
 18 19  1  0
 19 20  1  0
 20 21  1  0
 21 17  1  0
 20 23  1  0
 14 22  1  0
 10 13  2  0
 11 10  1  0
 10 12  2  0
  2  5  1  0
  4  3  1  0
  3  1  2  0
  4  5  2  0
  5  6  1  0
  6  7  1  0
  6  8  1  0
  9  1  1  0
  1  2  1  0
 23 24  1  0
 24 33  1  0
 24 25  2  0
 26 27  2  0
 27 28  1  0
 28 29  2  0
 29 30  1  0
 30 31  2  0
 31 26  1  0
 27 32  1  0
 30 33  1  0
 32 34  1  0
 32 35  1  0
 32 36  1  0
 29 37  1  0
M  END
>  <ID_NEW>
CPDPP3136

>  <pEC50>
7.775388493796931

$$$$

  SciTegic12180813072D

 36 39  0  0  0  0            999 V2000
    0.6382    2.6814    0.0000 N   0  0
    1.2176    2.3434    0.0000 C   0  0
    1.3562    1.6787    0.0000 N   0  0
    2.0226    1.6068    0.0000 N   0  0
    2.3023    2.2153    0.0000 C   0  0
    1.8067    2.6746    0.0000 S   0  0
    2.9632    2.3468    0.0000 C   0  0
    3.4000    1.8409    0.0000 C   0  0
    3.1832    2.9761    0.0000 C   0  0
   -0.7091    2.6986    0.0000 C   0  0
   -0.0404    2.6809    0.0000 S   0  0
   -0.0427    2.0193    0.0000 O   0  0
   -0.0230    3.3518    0.0000 O   0  0
   -1.7327    2.1394    0.0000 C   0  0
   -1.0598    2.1227    0.0000 C   0  0
   -1.0304    3.2870    0.0000 C   0  0
   -1.7067    3.2996    0.0000 C   0  0
   -2.0534    2.7275    0.0000 C   0  0
   -3.0810    2.1783    0.0000 C   0  0
   -3.7526    2.1900    0.0000 N   0  0
   -2.3771    3.3227    0.0000 C   0  0
   -2.7260    2.7476    0.0000 C   0  0
   -3.3854    2.9074    0.0000 C   0  0
   -3.4355    3.5758    0.0000 C   0  0
   -2.8191    3.8310    0.0000 C   0  0
   -4.0943    1.6169    0.0000 C   0  0
   -3.7680    1.0300    0.0000 C   0  0
   -4.1104    0.4573    0.0000 C   0  0
   -4.7896    0.4688    0.0000 C   0  0
   -5.1107    1.0584    0.0000 C   0  0
   -4.7627    1.6321    0.0000 N   0  0
   -5.1377   -0.1035    0.0000 C   0  0
   -5.4518   -0.6256    0.0000 F   0  0
   -4.9003   -0.7664    0.0000 F   0  0
   -5.8307   -0.2029    0.0000 F   0  0
   -3.0963    1.0205    0.0000 Cl  0  0
  1  2  1  0
  2  3  2  0
  3  4  1  0
  4  5  2  0
  5  6  1  0
  6  2  1  0
  5  7  1  0
  7  8  1  0
  7  9  1  0
 14 15  2  0
 15 10  1  0
 10 16  2  0
 16 17  1  0
 18 22  1  0
 22 19  1  0
 19 20  1  0
 21 22  1  0
 22 23  1  0
 23 24  1  0
 24 25  1  0
 25 21  1  0
 10 11  1  0
 11  1  1  0
 11 12  2  0
 11 13  2  0
 17 18  2  0
 18 14  1  0
 20 26  1  0
 26 27  2  0
 27 28  1  0
 28 29  2  0
 29 30  1  0
 30 31  2  0
 31 26  1  0
 32 33  1  0
 32 34  1  0
 32 35  1  0
 29 32  1  0
 27 36  1  0
M  END
>  <ID_NEW>
CPDPP3137

>  <pEC50>
7.771200079319324

$$$$

  SciTegic12180813032D

 33 36  0  0  0  0            999 V2000
   -3.5184   -1.9071    0.0000 C   0  0
   -4.2929   -2.3308    0.0000 C   0  0
   -4.3135   -3.2139    0.0000 O   0  0
   -5.0881   -3.6376    0.0000 C   0  0
   -3.5255   -1.0214    0.0000 N   0  0
   -1.2264    0.3000    0.0000 C   0  0
   -1.2275   -0.5856    0.0000 C   0  0
   -0.4627   -1.0277    0.0000 C   0  0
    0.3037   -0.5852    0.0000 C   0  0
    0.3009    0.3037    0.0000 C   0  0
   -0.4645    0.7420    0.0000 C   0  0
   -1.9923   -1.0268    0.0000 C   0  0
   -2.7607   -0.5803    0.0000 C   0  0
    1.0638    0.7481    0.0000 C   0  0
    1.0689   -1.0257    0.0000 C   0  0
   -5.0553    2.4704    0.0000 C   0  0
   -5.8298    2.0269    0.0000 C   0  0
   -5.8239    1.1389    0.0000 C   0  0
   -4.2868    2.0327    0.0000 C   0  0
   -4.2816    1.1460    0.0000 C   0  0
   -5.0482    0.6937    0.0000 C   0  0
   -4.8573   -0.1758    0.0000 N   0  0
   -3.9722   -0.2597    0.0000 C   0  0
   -3.6172    0.5563    0.0000 S   0  0
   -5.0574    3.3537    0.0000 C   0  0
   -4.2897    3.7988    0.0000 F   0  0
   -5.8270    3.7900    0.0000 F   0  0
   -4.1975    3.1254    0.0000 F   0  0
    1.8712    0.3948    0.0000 N   0  0
    2.4594    1.0532    0.0000 O   0  0
    2.0150    1.8162    0.0000 C   0  0
    1.1522    1.6291    0.0000 N   0  0
    2.3710    2.6242    0.0000 O   0  0
  7  8  1  0
  8  9  2  0
  9 10  1  0
 10 11  2  0
 11  6  1  0
  7 12  1  0
 12 13  1  0
 13  5  1  0
 10 14  1  0
  9 15  1  0
 16 17  2  0
 17 18  1  0
 18 21  2  0
 20 19  2  0
 19 16  1  0
 20 21  1  0
 21 22  1  0
 22 23  2  0
 23 24  1  0
 24 20  1  0
 16 25  1  0
 25 26  1  0
 25 27  1  0
 25 28  1  0
 23  5  1  0
  1  2  1  0
  2  3  1  0
  3  4  1  0
  1  5  1  0
  6  7  2  0
 14 29  2  0
 29 30  1  0
 30 31  1  0
 31 32  1  0
 32 14  1  0
 31 33  2  0
M  END
>  <ID_NEW>
CPDPP3138

>  <pEC50>
7.766402411243285

$$$$

  SciTegic12180813072D

 34 37  0  0  0  0            999 V2000
    1.6317   -4.1586    0.0000 C   0  0
    1.2535   -4.8945    0.0000 C   0  0
    1.7016   -5.5878    0.0000 C   0  0
    2.5278   -5.5464    0.0000 C   0  0
    2.9037   -4.8058    0.0000 C   0  0
    2.4533   -4.1156    0.0000 C   0  0
    3.7274   -4.7611    0.0000 C   0  0
    4.2447   -5.3992    0.0000 N   0  0
    5.0153   -5.1021    0.0000 C   0  0
    4.9693   -4.2772    0.0000 C   0  0
    4.1704   -4.0674    0.0000 S   0  0
    5.7082   -5.5497    0.0000 C   0  0
    5.6097   -3.7519    0.0000 C   0  0
    0.4295   -4.9354    0.0000 C   0  0
    0.0529   -5.6694    0.0000 F   0  0
   -0.0178   -4.2422    0.0000 F   0  0
    1.0411   -5.4891    0.0000 F   0  0
    6.3817   -4.0428    0.0000 O   0  0
    5.4757   -2.9379    0.0000 C   0  0
    5.7629   -2.1661    0.0000 C   0  0
    8.1483   -3.9562    0.0000 C   0  0
    7.7436   -4.7441    0.0000 C   0  0
    8.2229   -5.4861    0.0000 C   0  0
    9.1068   -5.4415    0.0000 C   0  0
    9.5094   -4.6490    0.0000 C   0  0
    9.0278   -3.9101    0.0000 C   0  0
    6.8619   -4.7881    0.0000 C   0  0
   10.3910   -4.6011    0.0000 C   0  0
    9.4276   -3.1238    0.0000 F   0  0
   10.9463   -5.2822    0.0000 N   0  0
   11.7700   -4.9642    0.0000 O   0  0
   11.7221   -4.0825    0.0000 C   0  0
   10.8688   -3.8558    0.0000 N   0  0
   12.3417   -3.4542    0.0000 O   0  0
  9 12  1  0
  2 14  1  0
 14 15  1  0
 14 16  1  0
 14 17  1  0
 13 18  1  0
 13 19  1  0
 20 19  1  0
  3  4  2  0
  5  7  1  0
  8  9  1  0
  4  5  1  0
  2  3  1  0
  5  6  2  0
  7  8  2  0
  9 10  2  0
 10 11  1  0
 22 27  1  0
 22 23  1  0
 25 28  1  0
 23 24  2  0
 26 29  1  0
 24 25  1  0
 21 22  2  0
 25 26  2  0
 26 21  1  0
 27 18  1  0
 28 30  2  0
 11  7  1  0
  6  1  1  0
 10 13  1  0
 30 31  1  0
 31 32  1  0
 32 33  1  0
 33 28  1  0
  1  2  2  0
 32 34  2  0
M  END
>  <ID_NEW>
CPDPP3139

>  <pEC50>
7.76293879929368

$$$$

  SciTegic12180813102D

 35 38  0  0  0  0            999 V2000
   -2.9463    1.2183    0.0000 C   0  0
   -3.6643    1.6342    0.0000 N   0  0
   -4.3785    1.2274    0.0000 C   0  0
   -4.3847    0.3977    0.0000 C   0  0
   -3.6678   -0.0194    0.0000 C   0  0
   -2.9490    0.3925    0.0000 C   0  0
   -2.2365   -0.0251    0.0000 Cl  0  0
   -5.1094   -0.0209    0.0000 C   0  0
   -5.8321   -0.4384    0.0000 F   0  0
   -5.5228    0.7040    0.0000 F   0  0
   -4.6901   -0.7484    0.0000 F   0  0
    3.1500    3.2240    0.0000 C   0  0
    3.8997    3.5674    0.0000 S   0  0
    3.2492    2.4016    0.0000 N   0  0
    4.0645    2.2427    0.0000 N   0  0
    4.4561    2.9619    0.0000 C   0  0
    5.2893    3.0716    0.0000 C   0  0
    5.6050    3.8312    0.0000 C   0  0
    5.7957    2.4149    0.0000 C   0  0
    1.7280    3.0510    0.0000 S   0  0
    1.2359    3.7115    0.0000 O   0  0
    2.3913    3.5448    0.0000 N   0  0
    2.2245    2.3889    0.0000 O   0  0
    1.0713    2.5545    0.0000 C   0  0
    0.5069    1.2361    0.0000 C   0  0
    1.1711    1.7366    0.0000 C   0  0
    0.3145    2.8780    0.0000 C   0  0
   -0.3512    2.3817    0.0000 C   0  0
   -0.2515    1.5631    0.0000 C   0  0
   -0.9171    1.0637    0.0000 C   0  0
   -1.4118    1.7271    0.0000 C   0  0
   -2.2289    1.6309    0.0000 N   0  0
   -0.4204    0.4042    0.0000 C   0  0
   -1.5744    0.5700    0.0000 C   0  0
   -1.0840   -0.0885    0.0000 C   0  0
  1  2  2  0
  2  3  1  0
  3  4  2  0
  4  5  1  0
  5  6  2  0
 28 29  2  0
 29 25  1  0
 30 34  1  0
 30 33  1  0
 29 30  1  0
 31 32  1  0
 30 31  1  0
 20 24  1  0
 20 23  2  0
 20 21  2  0
 20 22  1  0
 15 16  2  0
 16 17  1  0
 17 18  1  0
 17 19  1  0
 22 12  1  0
 12 13  1  0
 35 34  1  0
 33 35  1  0
 13 16  1  0
 15 14  1  0
 14 12  2  0
 25 26  2  0
 26 24  1  0
 24 27  2  0
 27 28  1  0
  6  1  1  0
  6  7  1  0
  8  9  1  0
  8 10  1  0
  8 11  1  0
  4  8  1  0
 32  1  1  0
M  END
>  <ID_NEW>
CPDPP3140

>  <pEC50>
7.758052788522355

$$$$

  SciTegic12180813092D

 47 51  0  0  0  0            999 V2000
    7.2187   -4.1808    0.0000 C   0  0
    4.9171   -3.3264    0.0000 C   0  0
    4.5203   -3.3936    0.0000 C   0  0
    5.1389   -2.9704    0.0000 S   0  0
    5.1960   -3.6492    0.0000 N   0  0
    4.3591   -3.7606    0.0000 C   0  0
    4.2736   -3.0530    0.0000 C   0  0
    5.5435   -3.0714    0.0000 C   0  0
    5.5765   -3.4942    0.0000 C   0  0
    3.9442   -3.8228    0.0000 C   0  0
    3.8423   -3.1064    0.0000 C   0  0
    5.8712   -2.7930    0.0000 C   0  0
    5.9366   -3.7257    0.0000 C   0  0
    3.6983   -3.4880    0.0000 C   0  0
    6.2468   -2.9320    0.0000 O   0  0
    3.2953   -3.5436    0.0000 C   0  0
    2.8834   -3.5760    0.0000 F   0  0
    3.3290   -3.9443    0.0000 F   0  0
    3.2622   -3.1287    0.0000 F   0  0
    6.6709   -2.9291    0.0000 C   0  0
    6.8772   -3.2893    0.0000 C   0  0
    7.2841   -3.2909    0.0000 C   0  0
    7.4900   -2.9316    0.0000 C   0  0
    7.2848   -2.5740    0.0000 C   0  0
    6.8706   -2.5750    0.0000 C   0  0
    7.4898   -3.6465    0.0000 O   0  0
    7.9022   -2.9321    0.0000 C   0  0
    8.1053   -3.2882    0.0000 N   0  0
    8.1059   -2.5727    0.0000 N   0  0
    8.5890   -2.6782    0.0000 O   0  0
    8.5914   -3.1613    0.0000 C   0  0
    8.8611   -3.4049    0.0000 O   0  0
    6.6736   -2.2214    0.0000 F   0  0
    5.9179   -4.1481    0.0000 N   0  0
    5.5382   -4.3400    0.0000 C   0  0
    5.5146   -4.7691    0.0000 C   0  0
    5.8737   -4.9939    0.0000 C   0  0
    6.2449   -4.8037    0.0000 C   0  0
    6.2653   -4.3844    0.0000 C   0  0
    5.8453   -5.4247    0.0000 C   0  0
    5.4616   -5.6060    0.0000 F   0  0
    6.1964   -5.6491    0.0000 F   0  0
    5.4446   -5.2861    0.0000 F   0  0
    7.5378   -4.6963    0.0000 C   0  0
    7.2668   -5.2306    0.0000 F   0  0
    8.1446   -4.6609    0.0000 F   0  0
    6.9645   -4.8824    0.0000 F   0  0
 34 39  1  0
 35 36  1  0
 36 37  1  0
 37 38  1  0
 38 39  1  0
  4  8  1  0
 37 40  1  0
  5  9  1  0
 40 41  1  0
  6 10  2  0
 40 42  1  0
  7 11  1  0
 40 43  1  0
  8 12  1  0
  1 44  1  0
  9 13  1  0
 44 45  1  0
 10 14  1  0
 44 46  1  0
 12 15  1  0
 44 47  1  0
 14 16  1  0
 16 17  1  0
 16 18  1  0
 16 19  1  0
  8  9  2  0
 11 14  2  0
 15 20  1  0
 20 21  2  0
 21 22  1  0
 22 23  2  0
 23 24  1  0
 24 25  2  0
 25 20  1  0
 22 26  1  0
 26  1  1  0
 23 27  1  0
 27 28  1  0
 27 29  2  0
 29 30  1  0
 28 31  1  0
 31 32  2  0
 30 31  1  0
 25 33  1  0
 13 34  1  0
 34 35  1  0
  2  3  1  0
  2  4  1  0
  2  5  2  0
  3  6  1  0
  3  7  2  0
M  END
>  <ID_NEW>
CPDPP3141

>  <pEC50>
7.743393308707349

$$$$

  SciTegic12180813072D

 33 36  0  0  0  0            999 V2000
    8.6496   -2.8266    0.0000 C   0  0
    7.2182   -2.9298    0.0000 C   0  0
    6.4750   -2.5681    0.0000 C   0  0
    6.4184   -1.7377    0.0000 C   0  0
    7.1048   -1.2784    0.0000 C   0  0
    7.8478   -1.6401    0.0000 C   0  0
    7.9065   -2.4648    0.0000 C   0  0
    5.6752   -1.3761    0.0000 C   0  0
    2.7029   -5.1827    0.0000 C   0  0
    1.8872   -5.3279    0.0000 C   0  0
    1.3570   -4.6912    0.0000 C   0  0
    1.6368   -3.9166    0.0000 C   0  0
    2.4516   -3.7719    0.0000 C   0  0
    2.9835   -4.4077    0.0000 C   0  0
    2.7336   -2.9962    0.0000 C   0  0
    2.2704   -2.3117    0.0000 N   0  0
    2.7818   -1.6566    0.0000 C   0  0
    3.5592   -1.9423    0.0000 C   0  0
    3.5298   -2.7690    0.0000 S   0  0
    2.5508   -0.8622    0.0000 C   0  0
    4.2438   -1.4793    0.0000 C   0  0
    1.6073   -6.1025    0.0000 C   0  0
    0.7808   -6.0339    0.0000 F   0  0
    1.4607   -6.9189    0.0000 F   0  0
    2.4023   -6.3201    0.0000 F   0  0
    4.9869   -1.8409    0.0000 O   0  0
    4.1852   -0.6545    0.0000 C   0  0
    4.8735   -0.1896    0.0000 C   0  0
    8.7947   -3.6360    0.0000 N   0  0
    9.6132   -3.7504    0.0000 O   0  0
    9.9750   -3.0072    0.0000 C   0  0
    9.3800   -2.4336    0.0000 N   0  0
   10.7667   -2.7875    0.0000 O   0  0
  6  7  2  0
  7  2  1  0
  2  3  2  0
 11 12  2  0
 13 15  1  0
 16 17  1  0
 12 13  1  0
 10 11  1  0
 13 14  2  0
 15 16  2  0
 17 18  2  0
 18 19  1  0
 19 15  1  0
 14  9  1  0
 18 21  1  0
  9 10  2  0
 17 20  1  0
 10 22  1  0
 22 23  1  0
 22 24  1  0
 22 25  1  0
 21 26  1  0
 21 27  1  0
 28 27  1  0
  8 26  1  0
  1  7  1  0
  1 29  2  0
  4  5  2  0
  4  8  1  0
  5  6  1  0
 29 30  1  0
 30 31  1  0
 31 32  1  0
 32  1  1  0
  3  4  1  0
 31 33  2  0
M  END
>  <ID_NEW>
CPDPP3142

>  <pEC50>
7.740754147753365

$$$$

  SciTegic12180813062D

 40 43  0  0  0  0            999 V2000
   -4.1251    1.4950    0.0000 C   0  0
   -4.5505    1.9737    0.0000 C   0  0
   -3.4972    1.6224    0.0000 C   0  0
   -4.3495    2.5883    0.0000 C   0  0
   -3.2860    2.2387    0.0000 C   0  0
   -3.7216    2.7158    0.0000 C   0  0
   -4.7785    3.0714    0.0000 O   0  0
   -3.5077    3.3316    0.0000 C   0  0
   -3.9119    3.7995    0.0000 O   0  0
   -4.3273    0.8947    0.0000 C   0  0
   -5.4051    2.9495    0.0000 C   0  0
   -5.8322    3.4239    0.0000 C   0  0
   -4.5097    0.3396    0.0000 F   0  0
   -3.9685    0.3225    0.0000 F   0  0
   -4.9529    0.6440    0.0000 F   0  0
    1.8004    2.5866    0.0000 N   0  0
    2.4464    2.2069    0.0000 C   0  0
    2.6017    1.4672    0.0000 N   0  0
    3.3514    1.3869    0.0000 N   0  0
    3.6603    2.0663    0.0000 C   0  0
    3.1022    2.5756    0.0000 S   0  0
    4.4004    2.2145    0.0000 C   0  0
    4.8914    1.6502    0.0000 C   0  0
    4.6496    2.9146    0.0000 C   0  0
    0.2905    2.6079    0.0000 C   0  0
    1.0426    2.5861    0.0000 S   0  0
    1.0361    1.8495    0.0000 O   0  0
    1.0600    3.3361    0.0000 O   0  0
   -0.8497    1.9821    0.0000 C   0  0
   -0.0976    1.9612    0.0000 C   0  0
   -0.0683    3.2630    0.0000 C   0  0
   -0.8237    3.2797    0.0000 C   0  0
   -1.2121    2.6410    0.0000 C   0  0
   -2.1677    3.3685    0.0000 C   0  0
   -2.8253    3.6135    0.0000 N   0  0
   -1.6040    1.9991    0.0000 C   0  0
   -1.9660    2.6576    0.0000 C   0  0
   -2.7062    2.5177    0.0000 C   0  0
   -2.7982    1.7783    0.0000 C   0  0
   -2.1270    1.4523    0.0000 C   0  0
 10 15  1  0
  8  9  2  0
 16 17  1  0
 17 18  2  0
 18 19  1  0
 19 20  2  0
 20 21  1  0
 21 17  1  0
 20 22  1  0
 22 23  1  0
 22 24  1  0
 29 30  2  0
 30 25  1  0
 25 31  2  0
 31 32  1  0
 33 37  1  0
 37 34  1  0
 34 35  1  0
 36 37  1  0
 37 38  1  0
 38 39  1  0
 39 40  1  0
 40 36  1  0
 25 26  1  0
 26 16  1  0
 26 27  2  0
 26 28  2  0
 32 33  2  0
 33 29  1  0
  5  6  1  0
  1 10  1  0
  1  2  2  0
  1  3  1  0
  2  4  1  0
  3  5  2  0
  4  6  2  0
  4  7  1  0
  6  8  1  0
  7 11  1  0
 11 12  1  0
 10 13  1  0
 10 14  1  0
 35  8  1  0
M  END
>  <ID_NEW>
CPDPP3143

>  <pEC50>
7.7377753089984225

$$$$

  SciTegic12180813012D

 37 41  0  0  0  0            999 V2000
    4.6578   -1.2605    0.0000 C   0  0
    3.9950   -2.4360    0.0000 C   0  0
    3.9966   -0.0911    0.0000 C   0  0
    6.0096   -1.2615    0.0000 C   0  0
    2.6398   -2.4350    0.0000 C   0  0
    4.6562   -3.6433    0.0000 C   0  0
    2.6414   -0.0901    0.0000 C   0  0
    1.9406   -1.2587    0.0000 C   0  0
    0.5721   -1.2560    0.0000 O   0  0
   -4.1941   -0.0483    0.0000 C   0  0
   -4.6016   -0.7684    0.0000 C   0  0
   -4.1819   -1.4791    0.0000 C   0  0
   -3.3548   -1.4711    0.0000 C   0  0
   -2.9492   -0.7463    0.0000 C   0  0
   -3.3713   -0.0385    0.0000 C   0  0
   -2.1243   -0.7350    0.0000 C   0  0
   -1.6293   -1.3940    0.0000 O   0  0
   -0.8483   -1.1283    0.0000 C   0  0
   -0.8596   -0.3033    0.0000 C   0  0
   -1.6477   -0.0593    0.0000 N   0  0
   -5.4266   -0.7760    0.0000 O   0  0
   -0.1742   -1.6039    0.0000 C   0  0
   -0.1996    0.1930    0.0000 C   0  0
   -5.8325   -1.4942    0.0000 C   0  0
   -0.1327    1.0153    0.0000 O   0  0
    0.6129    1.3685    0.0000 C   0  0
    6.8066   -2.3505    0.0000 N   0  0
    8.0925   -1.9337    0.0000 O   0  0
    8.0935   -0.5818    0.0000 C   0  0
    6.8082   -0.1633    0.0000 N   0  0
    9.1878    0.2121    0.0000 O   0  0
    0.6798    2.1908    0.0000 C   0  0
    1.4270    2.5410    0.0000 C   0  0
    1.4942    3.3624    0.0000 C   0  0
    0.8151    3.8324    0.0000 C   0  0
    0.0668    3.4750    0.0000 C   0  0
    0.0032    2.6546    0.0000 C   0  0
  1  2  1  0
  1  3  2  0
  1  4  1  0
  2  5  2  0
  2  6  1  0
  3  7  1  0
  5  8  1  0
  7  8  2  0
  8  9  1  0
 10 11  2  0
 11 12  1  0
 12 13  2  0
 13 14  1  0
 14 15  2  0
 15 10  1  0
 14 16  1  0
 16 17  1  0
 17 18  1  0
 18 19  2  0
 19 20  1  0
 20 16  2  0
 11 21  1  0
 18 22  1  0
 22  9  1  0
 19 23  1  0
 21 24  1  0
 23 25  1  0
 25 26  1  0
  4 27  2  0
 27 28  1  0
 28 29  1  0
 29 30  1  0
 30  4  1  0
 29 31  2  0
 26 32  1  0
 32 33  2  0
 33 34  1  0
 34 35  2  0
 35 36  1  0
 36 37  2  0
 37 32  1  0
M  END
>  <ID_NEW>
CPDPP3144

>  <pEC50>
7.731339800712259

$$$$

  SciTegic12180813082D

 37 41  0  0  0  0            999 V2000
    3.9031    3.4810    0.0000 N   0  0
    0.9415    2.6253    0.0000 C   0  0
    0.9415    1.7713    0.0000 C   0  0
    0.1330    2.8894    0.0000 C   0  0
    1.6774    3.0531    0.0000 C   0  0
    0.1294    1.5108    0.0000 C   0  0
    1.6753    1.3470    0.0000 C   0  0
   -0.3635    2.1959    0.0000 C   0  0
    2.4175    2.6265    0.0000 C   0  0
    2.4201    1.7734    0.0000 C   0  0
    3.1619    3.0534    0.0000 S   0  0
    3.5901    2.3050    0.0000 O   0  0
    2.7371    3.7968    0.0000 O   0  0
    4.6433    3.0572    0.0000 C   0  0
    4.7319    2.2138    0.0000 S   0  0
    5.5684    2.0353    0.0000 C   0  0
    5.9922    2.7756    0.0000 N   0  0
    5.4182    3.4084    0.0000 N   0  0
    5.9135    1.2572    0.0000 C   0  0
    5.8300    0.4126    0.0000 C   0  0
    6.6039    0.7619    0.0000 C   0  0
   -1.2164    2.1950    0.0000 N   0  0
   -1.6437    2.9331    0.0000 C   0  0
   -2.4965    2.9321    0.0000 C   0  0
   -2.9218    3.6711    0.0000 C   0  0
   -3.7739    3.6705    0.0000 C   0  0
   -4.2003    2.9309    0.0000 C   0  0
   -3.7684    2.1903    0.0000 C   0  0
   -2.9178    2.1946    0.0000 C   0  0
   -1.2181    3.6721    0.0000 O   0  0
   -2.4889    1.4599    0.0000 O   0  0
   -2.9107    0.7212    0.0000 C   0  0
   -3.7614    0.7171    0.0000 C   0  0
   -5.0546    2.9287    0.0000 C   0  0
   -5.8314    2.9267    0.0000 F   0  0
   -5.6200    3.6189    0.0000 F   0  0
   -5.6166    2.2357    0.0000 F   0  0
 20 19  1  0
 21 20  1  0
 19 21  1  0
  2  3  2  0
  2  4  1  0
  2  5  1  0
  3  6  1  0
  3  7  1  0
  4  8  1  0
  5  9  2  0
  7 10  2  0
  6  8  1  0
  9 10  1  0
 11  1  1  0
 11 12  2  0
 11 13  2  0
  9 11  1  0
  1 14  1  0
 14 15  1  0
 15 16  1  0
 16 17  2  0
 17 18  1  0
 18 14  2  0
 16 19  1  0
  8 22  1  0
 22 23  1  0
 23 24  1  0
 24 25  2  0
 25 26  1  0
 26 27  2  0
 27 28  1  0
 28 29  2  0
 29 24  1  0
 23 30  2  0
 29 31  1  0
 31 32  1  0
 32 33  1  0
 34 35  1  0
 34 36  1  0
 34 37  1  0
 27 34  1  0
M  END
>  <ID_NEW>
CPDPP3145

>  <pEC50>
7.728042259866406

$$$$

  SciTegic12180813592D

 38 42  0  0  0  0            999 V2000
   10.9874   -9.3523    0.0000 C   0  0
   10.2758   -9.8623    0.0000 N   0  0
   10.5374  -10.7007    0.0000 O   0  0
   11.4156  -10.7110    0.0000 C   0  0
   11.6967   -9.8790    0.0000 N   0  0
   11.9236  -11.4275    0.0000 O   0  0
   10.9468   -6.6884    0.0000 C   0  0
   10.1842   -7.1439    0.0000 C   0  0
   10.1955   -8.0326    0.0000 C   0  0
   10.9724   -8.4679    0.0000 C   0  0
   11.7402   -8.0049    0.0000 C   0  0
   11.7208   -7.1203    0.0000 C   0  0
   12.5171   -8.4347    0.0000 Cl  0  0
   10.9364   -6.0739    0.0000 S   0  0
    6.5410   -2.4897    0.0000 C   0  0
    6.4900   -3.3154    0.0000 N   0  0
    7.1787   -3.7706    0.0000 C   0  0
    7.9187   -3.4013    0.0000 C   0  0
    7.9659   -2.5720    0.0000 C   0  0
    7.2765   -2.1205    0.0000 C   0  0
    5.8526   -2.0350    0.0000 C   0  0
    5.9021   -1.2112    0.0000 F   0  0
    5.1147   -2.4038    0.0000 F   0  0
    6.4705   -1.4795    0.0000 F   0  0
    8.6055   -3.8583    0.0000 C   0  0
    8.6146   -4.7539    0.0000 C   0  0
    9.3959   -5.1957    0.0000 C   0  0
    9.3756   -3.4020    0.0000 C   0  0
   10.1619   -3.8459    0.0000 C   0  0
   10.1640   -4.7413    0.0000 C   0  0
   10.9370   -5.1826    0.0000 N   0  0
   11.7127   -4.7335    0.0000 C   0  0
   11.7106   -3.8380    0.0000 C   0  0
   10.9328   -3.3917    0.0000 C   0  0
   10.3293   -2.7101    0.0000 C   0  0
   11.4234   -2.6343    0.0000 C   0  0
   11.7583   -6.0708    0.0000 O   0  0
   10.1083   -6.0666    0.0000 O   0  0
  1  2  2  0
  2  3  1  0
  3  4  1  0
  4  5  1  0
  5  1  1  0
  4  6  2  0
  7  8  2  0
  8  9  1  0
  9 10  2  0
 10 11  1  0
 11 12  2  0
 12  7  1  0
 11 13  1  0
 10  1  1  0
  7 14  1  0
 25 18  1  0
 15 16  2  0
 16 17  1  0
 17 18  2  0
 18 19  1  0
 19 20  2  0
 20 15  1  0
 15 21  1  0
 21 22  1  0
 21 23  1  0
 21 24  1  0
 29 28  1  0
 27 30  1  0
 28 25  2  0
 25 26  1  0
 26 27  2  0
 29 34  1  0
 30 31  1  0
 31 32  1  0
 32 33  1  0
 33 34  1  0
 34 35  1  0
 29 30  2  0
 34 36  1  0
 31 14  1  0
 14 37  2  0
 14 38  2  0
M  END
>  <ID_NEW>
CPDPP3146

>  <pEC50>
7.726608376949852

$$$$

  -MTS-   10172316532D 0   0.00000     0.00000     0

 35 38  0  0  1  0  0  0  0  0999 V2000
    2.2260   -4.3590    0.0000 C   0  0  0  0  0  0  0  0  0  0  0  0
    2.2250   -5.1870    0.0000 C   0  0  0  0  0  0  0  0  0  0  0  0
    2.9400   -5.6000    0.0000 C   0  0  0  0  0  0  0  0  0  0  0  0
    3.6570   -5.1860    0.0000 C   0  0  0  0  0  0  0  0  0  0  0  0
    3.6540   -4.3560    0.0000 C   0  0  0  0  0  0  0  0  0  0  0  0
    2.9380   -3.9470    0.0000 C   0  0  0  0  0  0  0  0  0  0  0  0
    4.3670   -3.9400    0.0000 C   0  0  0  0  0  0  0  0  0  0  0  0
    5.1180   -4.2730    0.0000 N   0  0  0  0  0  0  0  0  0  0  0  0
    5.6680   -3.6570    0.0000 C   0  0  0  0  0  0  0  0  0  0  0  0
    5.2510   -2.9440    0.0000 C   0  0  0  0  0  0  0  0  0  0  0  0
    4.4450   -3.1210    0.0000 S   0  0  0  0  0  0  0  0  0  0  0  0
    6.4890   -3.7400    0.0000 C   0  0  0  0  0  0  0  0  0  0  0  0
    5.5820   -2.1840    0.0000 C   0  0  2  0  0  0  0  0  0  0  0  0
    1.5100   -5.5990    0.0000 C   0  0  0  0  0  0  0  0  0  0  0  0
    1.5100   -6.4240    0.0000 F   0  0  0  0  0  0  0  0  0  0  0  0
    0.7960   -5.1850    0.0000 F   0  0  0  0  0  0  0  0  0  0  0  0
    2.3070   -5.8130    0.0000 F   0  0  0  0  0  0  0  0  0  0  0  0
    6.4020   -2.0910    0.0000 O   0  0  0  0  0  0  0  0  0  0  0  0
    5.0920   -1.5210    0.0000 C   0  0  0  0  0  0  0  0  0  0  0  0
    5.4210   -0.7640    0.0000 F   0  0  0  0  0  0  0  0  0  0  0  0
    4.2720   -1.6140    0.0000 F   0  0  0  0  0  0  0  0  0  0  0  0
    4.6740   -0.8010    0.0000 F   0  0  0  0  0  0  0  0  0  0  0  0
    7.6370   -2.7970    0.0000 C   0  0  0  0  0  0  0  0  0  0  0  0
    8.4610   -2.7980    0.0000 C   0  0  0  0  0  0  0  0  0  0  0  0
    8.8710   -2.0870    0.0000 C   0  0  0  0  0  0  0  0  0  0  0  0
    8.4600   -1.3740    0.0000 C   0  0  0  0  0  0  0  0  0  0  0  0
    7.6340   -1.3770    0.0000 C   0  0  0  0  0  0  0  0  0  0  0  0
    7.2270   -2.0890    0.0000 C   0  0  0  0  0  0  0  0  0  0  0  0
    8.8730   -3.5130    0.0000 Cl  0  0  0  0  0  0  0  0  0  0  0  0
    9.6960   -2.0870    0.0000 C   0  0  0  0  0  0  0  0  0  0  0  0
   10.1810   -2.7540    0.0000 N   0  0  0  0  0  0  0  0  0  0  0  0
   10.9650   -2.5000    0.0000 O   0  0  0  0  0  0  0  0  0  0  0  0
   10.9660   -1.6750    0.0000 C   0  0  0  0  0  0  0  0  0  0  0  0
   10.1810   -1.4200    0.0000 N   0  0  0  0  0  0  0  0  0  0  0  0
   11.6750   -1.2540    0.0000 O   0  0  0  0  0  0  0  0  0  0  0  0
 14 17  1  0  0  0  0
 13 18  1  0  0  0  0
  3  4  2  0  0  0  0
  5  7  1  0  0  0  0
  8  9  1  0  0  0  0
  4  5  1  0  0  0  0
  2  3  1  0  0  0  0
  5  6  2  0  0  0  0
  7  8  2  0  0  0  0
  9 10  2  0  0  0  0
 13 19  1  1  0  0  0
 10 11  1  0  0  0  0
 19 20  1  0  0  0  0
 11  7  1  0  0  0  0
 19 21  1  0  0  0  0
  6  1  1  0  0  0  0
 19 22  1  0  0  0  0
 24 25  1  0  0  0  0
 27 28  2  0  0  0  0
 28 23  1  0  0  0  0
 23 24  2  0  0  0  0
 28 18  1  0  0  0  0
 25 26  2  0  0  0  0
 24 29  1  0  0  0  0
 26 27  1  0  0  0  0
 10 13  1  0  0  0  0
 25 30  1  0  0  0  0
 30 31  2  0  0  0  0
  1  2  2  0  0  0  0
  9 12  1  0  0  0  0
  2 14  1  0  0  0  0
 14 15  1  0  0  0  0
 31 32  1  0  0  0  0
 32 33  1  0  0  0  0
 33 34  1  0  0  0  0
 34 30  1  0  0  0  0
 14 16  1  0  0  0  0
 33 35  2  0  0  0  0
M  END
>  <ID_NEW>
CPDPP3147

>  <pEC50>
7.723058486678061

$$$$

  SciTegic12180813072D

 35 38  0  0  0  0            999 V2000
    8.6970   -2.8320    0.0000 C   0  0
    7.8673   -2.7650    0.0000 C   0  0
    7.4050   -3.4486    0.0000 C   0  0
    7.7546   -4.1953    0.0000 C   0  0
    8.5796   -4.2551    0.0000 C   0  0
    9.0489   -3.5742    0.0000 C   0  0
    6.5833   -3.3863    0.0000 C   0  0
    1.6895   -4.0771    0.0000 C   0  0
    1.5453   -4.8863    0.0000 C   0  0
    2.1725   -5.4317    0.0000 N   0  0
    2.9464   -5.1562    0.0000 C   0  0
    3.0963   -4.3433    0.0000 C   0  0
    2.4742   -3.7994    0.0000 C   0  0
    3.8773   -4.0731    0.0000 C   0  0
    4.5550   -4.5300    0.0000 N   0  0
    5.2078   -4.0354    0.0000 C   0  0
    4.9353   -3.2547    0.0000 C   0  0
    4.1061   -3.2690    0.0000 S   0  0
    5.9992   -4.2589    0.0000 C   0  0
    5.4013   -2.5688    0.0000 C   0  0
    0.7647   -5.1664    0.0000 C   0  0
    0.8326   -5.9878    0.0000 F   0  0
   -0.0482   -5.2987    0.0000 F   0  0
    0.5582   -4.3613    0.0000 F   0  0
    6.2240   -2.6404    0.0000 O   0  0
    5.0478   -1.8241    0.0000 C   0  0
    5.6698   -1.2888    0.0000 F   0  0
    4.3339   -2.2439    0.0000 F   0  0
    4.5652   -1.1535    0.0000 F   0  0
    9.8679   -3.6370    0.0000 C   0  0
   10.3012   -4.3332    0.0000 N   0  0
   11.0995   -4.1399    0.0000 O   0  0
   11.1623   -3.3209    0.0000 C   0  0
   10.4028   -3.0082    0.0000 N   0  0
   11.8648   -2.8883    0.0000 O   0  0
  3  4  2  0
  3  7  1  0
 17 20  1  0
  8  9  2  0
 16 19  1  0
  9 21  1  0
 21 22  1  0
 21 23  1  0
 21 24  1  0
 20 25  1  0
 10 11  2  0
 12 14  1  0
 15 16  1  0
 11 12  1  0
  9 10  1  0
 12 13  2  0
 14 15  2  0
 16 17  2  0
 20 26  1  0
 17 18  1  0
 26 27  1  0
 18 14  1  0
 26 28  1  0
 13  8  1  0
 26 29  1  0
  7 25  1  0
  6 30  1  0
  4  5  1  0
 30 31  2  0
  2  3  1  0
  5  6  2  0
  6  1  1  0
 31 32  1  0
 32 33  1  0
 33 34  1  0
 34 30  1  0
  1  2  2  0
 33 35  2  0
M  END
>  <ID_NEW>
CPDPP3148

>  <pEC50>
7.717964420343279

$$$$

  SciTegic12180813522D

 34 38  0  0  0  0            999 V2000
   11.9961   -4.9634    0.0000 C   0  0
   11.7425   -5.7492    0.0000 N   0  0
   12.4164   -6.2300    0.0000 C   0  0
   13.0740   -5.7521    0.0000 O   0  0
   12.8203   -4.9685    0.0000 N   0  0
   12.4285   -7.0546    0.0000 O   0  0
    7.9871    1.2665    0.0000 C   0  0
    7.3712    1.8199    0.0000 C   0  0
    6.5891    1.5657    0.0000 C   0  0
    6.4133    0.7544    0.0000 C   0  0
    7.0216    0.2021    0.0000 N   0  0
    7.8096    0.4549    0.0000 C   0  0
    5.9828    2.1210    0.0000 C   0  0
    5.3749    2.6802    0.0000 F   0  0
    5.4219    1.5129    0.0000 F   0  0
    6.5388    2.7320    0.0000 F   0  0
   12.3013   -3.5721    0.0000 C   0  0
   12.0488   -2.7858    0.0000 C   0  0
   11.2480   -2.6095    0.0000 C   0  0
   10.6949   -3.2182    0.0000 C   0  0
   10.9433   -4.0030    0.0000 C   0  0
   11.7486   -4.1798    0.0000 C   0  0
   10.9948   -1.8215    0.0000 S   0  0
   10.2066   -2.0773    0.0000 O   0  0
   11.7825   -1.5704    0.0000 O   0  0
   10.7390   -1.0360    0.0000 N   0  0
    8.5278    0.0417    0.0000 C   0  0
    8.5266   -0.7815    0.0000 C   0  0
    9.2456   -1.1943    0.0000 C   0  0
    9.2438    0.4545    0.0000 C   0  0
    9.9550    0.0453    0.0000 C   0  0
    9.9557   -0.7811    0.0000 C   0  0
   11.2209   -0.3729    0.0000 C   0  0
   10.7395    0.2970    0.0000 C   0  0
  1  2  1  0
  2  3  1  0
  3  4  1  0
  4  5  1  0
  5  1  2  0
  3  6  2  0
  7  8  2  0
 13 16  1  0
  9 10  2  0
  9 13  1  0
 10 11  1  0
  8  9  1  0
 11 12  2  0
 13 14  1  0
 12  7  1  0
 13 15  1  0
 20 21  1  0
 23 24  2  0
 18 19  1  0
 28 29  1  0
 29 32  2  0
 27 28  2  0
 31 30  2  0
 32 26  1  0
 26 33  1  0
 33 34  1  0
 34 31  1  0
 30 27  1  0
 31 32  1  0
 26 23  1  0
 23 25  2  0
 21 22  2  0
 22 17  1  0
 17 18  2  0
 22  1  1  0
 19 20  2  0
 19 23  1  0
 27 12  1  0
M  END
>  <ID_NEW>
CPDPP3149

>  <pEC50>
7.716337289048204

$$$$

  SciTegic12180813022D

 38 41  0  0  0  0            999 V2000
   -4.7889   -1.0166    0.0000 C   0  0
   -4.7901   -1.6190    0.0000 C   0  0
   -4.2711   -1.9194    0.0000 C   0  0
   -3.7505   -1.6185    0.0000 C   0  0
   -3.7534   -1.0130    0.0000 C   0  0
   -4.2729   -0.7164    0.0000 C   0  0
   -5.3102   -1.9182    0.0000 C   0  0
   -5.8293   -1.6174    0.0000 F   0  0
   -5.3110   -2.5182    0.0000 F   0  0
   -5.4646   -1.3384    0.0000 F   0  0
   -3.2352   -0.7105    0.0000 C   0  0
   -2.6852   -0.9540    0.0000 N   0  0
   -2.2859   -0.5062    0.0000 C   0  0
   -2.5884    0.0120    0.0000 C   0  0
   -3.1746   -0.1156    0.0000 S   0  0
   -1.6889   -0.5660    0.0000 C   0  0
   -2.3470    0.5613    0.0000 C   0  0
   -1.7506    0.6270    0.0000 O   0  0
   -1.5092    1.1763    0.0000 C   0  0
   -0.9110    1.2407    0.0000 C   0  0
   -0.6696    1.7894    0.0000 C   0  0
   -1.0247    2.2738    0.0000 C   0  0
   -1.6240    2.2059    0.0000 C   0  0
   -1.8626    1.6571    0.0000 C   0  0
   -0.0731    1.8547    0.0000 O   0  0
    0.2817    1.3708    0.0000 C   0  0
   -0.7841    2.8234    0.0000 C   0  0
   -0.1875    2.8250    0.0000 N   0  0
   -0.0333    3.4083    0.0000 C   0  0
    0.5457    3.5656    0.0000 O   0  0
   -0.4590    3.8311    0.0000 O   0  0
   -0.9458    3.4083    0.0000 N   0  0
   -1.4422   -1.1130    0.0000 C   0  0
   -0.8452   -1.1729    0.0000 C   0  0
   -0.5985   -1.7198    0.0000 S   0  0
   -0.0015   -1.7797    0.0000 C   0  0
   -0.6042   -2.3167    0.0000 O   0  0
   -1.2000   -1.7125    0.0000 O   0  0
  1  2  2  0
  2  3  1  0
  3  4  2  0
  4  5  1  0
  5  6  2  0
  6  1  1  0
  2  7  1  0
  7  8  1  0
  7  9  1  0
  7 10  1  0
  5 11  1  0
 11 12  2  0
 12 13  1  0
 13 14  2  0
 14 15  1  0
 15 11  1  0
 13 16  1  0
 14 17  1  0
 17 18  1  0
 18 19  1  0
 19 20  2  0
 20 21  1  0
 21 22  2  0
 22 23  1  0
 23 24  2  0
 24 19  1  0
 21 25  1  0
 25 26  1  0
 22 27  1  0
 27 28  1  0
 28 29  1  0
 29 30  2  0
 29 31  1  0
 27 32  2  0
 32 31  1  0
 16 33  1  0
 33 34  1  0
 34 35  1  0
 35 36  1  0
 35 37  2  0
 35 38  2  0
M  END
>  <ID_NEW>
CPDPP3150

>  <pEC50>
7.7006421959165285

$$$$

  -MTS-   10172316532D 0   0.00000     0.00000     0

 34 37  0  0  0  0  0  0  0  0999 V2000
    6.2530   -5.7170    0.0000 C   0  0  0  0  0  0  0  0  0  0  0  0
    6.2520   -6.3440    0.0000 C   0  0  1  0  0  0  0  0  0  0  0  0
    6.7960   -6.6570    0.0000 C   0  0  0  0  0  0  0  0  0  0  0  0
    7.3370   -6.3440    0.0000 C   0  0  0  0  0  0  0  0  0  0  0  0
    7.3340   -5.7130    0.0000 C   0  0  2  0  0  0  0  0  0  0  0  0
    6.7940   -5.4040    0.0000 C   0  0  0  0  0  0  0  0  0  0  0  0
    5.7100   -6.6560    0.0000 C   0  0  0  0  0  0  0  0  0  0  0  0
    7.8740   -5.3980    0.0000 C   0  0  0  0  0  0  0  0  0  0  0  0
    5.1640   -6.3440    0.0000 F   0  0  0  0  0  0  0  0  0  0  0  0
    5.7100   -7.2810    0.0000 F   0  0  0  0  0  0  0  0  0  0  0  0
    5.5490   -6.0530    0.0000 F   0  0  0  0  0  0  0  0  0  0  0  0
    8.4480   -5.6480    0.0000 N   0  0  0  0  0  0  0  0  0  0  0  0
    8.8640   -5.1820    0.0000 C   0  0  0  0  0  0  0  0  0  0  0  0
    8.5490   -4.6420    0.0000 C   0  0  0  0  0  0  0  0  0  0  0  0
    7.9380   -4.7750    0.0000 S   0  0  0  0  0  0  0  0  0  0  0  0
    9.4860   -5.2450    0.0000 C   0  0  0  0  0  0  0  0  0  0  0  0
    8.8010   -4.0700    0.0000 C   0  0  0  0  0  0  0  0  0  0  0  0
    9.4220   -4.0020    0.0000 O   0  0  0  0  0  0  0  0  0  0  0  0
    8.4310   -3.5660    0.0000 C   0  0  0  0  0  0  0  0  0  0  0  0
    8.6830   -2.9940    0.0000 C   0  0  0  0  0  0  0  0  0  0  0  0
    9.9580   -3.6830    0.0000 C   0  0  0  0  0  0  0  0  0  0  0  0
   10.5020   -3.9910    0.0000 C   0  0  0  0  0  0  0  0  0  0  0  0
   11.0380   -3.6720    0.0000 C   0  0  0  0  0  0  0  0  0  0  0  0
   11.0310   -3.0480    0.0000 C   0  0  0  0  0  0  0  0  0  0  0  0
   10.4830   -2.7430    0.0000 C   0  0  0  0  0  0  0  0  0  0  0  0
    9.9490   -3.0630    0.0000 C   0  0  0  0  0  0  0  0  0  0  0  0
   11.5670   -2.7280    0.0000 C   0  0  0  0  0  0  0  0  0  0  0  0
   12.1130   -3.0320    0.0000 N   0  0  0  0  0  0  0  0  0  0  0  0
   11.5590   -2.1030    0.0000 N   0  0  0  0  0  0  0  0  0  0  0  0
   10.4720   -2.1180    0.0000 O   0  0  0  0  0  0  0  0  0  0  0  0
   11.0080   -1.7970    0.0000 C   0  0  0  0  0  0  0  0  0  0  0  0
   12.6500   -2.7170    0.0000 C   0  0  0  0  0  0  0  0  0  0  0  0
   13.1870   -3.0250    0.0000 O   0  0  0  0  0  0  0  0  0  0  0  0
   12.4870   -2.1170    0.0000 O   0  0  0  0  0  0  0  0  0  0  0  0
  6  1  1  0  0  0  0
 17 19  1  0  0  0  0
 19 20  1  0  0  0  0
  2  7  1  1  0  0  0
 18 21  1  0  0  0  0
 21 22  2  0  0  0  0
  5  8  1  6  0  0  0
 22 23  1  0  0  0  0
 23 24  2  0  0  0  0
  7  9  1  0  0  0  0
 24 25  1  0  0  0  0
  1  2  1  0  0  0  0
 25 26  2  0  0  0  0
 26 21  1  0  0  0  0
  7 10  1  0  0  0  0
 24 27  1  0  0  0  0
 27 28  1  0  0  0  0
  7 11  1  0  0  0  0
 27 29  2  0  0  0  0
  8 12  2  0  0  0  0
  2  3  1  0  0  0  0
 25 30  1  0  0  0  0
 30 31  1  0  0  0  0
  3  4  1  0  0  0  0
 12 13  1  0  0  0  0
 13 14  2  0  0  0  0
 14 15  1  0  0  0  0
 15  8  1  0  0  0  0
  4  5  1  0  0  0  0
 13 16  1  0  0  0  0
 14 17  1  0  0  0  0
 28 32  1  0  0  0  0
  5  6  1  0  0  0  0
 32 33  2  0  0  0  0
 17 18  1  0  0  0  0
 32 34  1  0  0  0  0
 29 34  1  0  0  0  0
V    2 M1
V    5 M1
M  END
>  <ID_NEW>
CPDPP3151

>  <pEC50>
7.6975076264370275

$$$$

  SciTegic12180812592D

 30 33  0  0  0  0            999 V2000
    7.2687   -3.6151    0.0000 C   0  0
    8.0237   -4.0423    0.0000 C   0  0
    8.7709   -3.6028    0.0000 C   0  0
    8.7632   -2.7388    0.0000 C   0  0
    8.0083   -2.3118    0.0000 C   0  0
    7.2610   -2.7516    0.0000 C   0  0
    9.5259   -4.0300    0.0000 C   0  0
    6.5174   -4.0545    0.0000 C   0  0
    5.7666   -3.6274    0.0000 C   0  0
    5.0152   -4.0667    0.0000 N   0  0
    5.0230   -4.9376    0.0000 C   0  0
    5.7779   -5.3648    0.0000 C   0  0
    5.7856   -6.2313    0.0000 C   0  0
    6.5405   -6.6627    0.0000 C   0  0
    2.8758   -1.8567    0.0000 C   0  0
    2.0048   -1.8657    0.0000 C   0  0
    1.5820   -2.6190    0.0000 C   0  0
    2.0177   -3.3677    0.0000 C   0  0
    3.3155   -2.6053    0.0000 C   0  0
    2.8843   -3.3587    0.0000 C   0  0
    3.4718   -3.9980    0.0000 N   0  0
    4.2648   -3.6395    0.0000 C   0  0
    4.1625   -2.7759    0.0000 S   0  0
    1.5693   -1.1129    0.0000 Cl  0  0
    9.5101   -2.2946    0.0000 C   0  0
   10.2653   -2.7261    0.0000 N   0  0
   10.9091   -2.1412    0.0000 O   0  0
   10.5517   -1.3481    0.0000 C   0  0
    9.6872   -1.4430    0.0000 N   0  0
   10.9832   -0.5928    0.0000 O   0  0
 21 22  2  0
 22 23  1  0
 23 19  1  0
 18 20  1  0
 16 24  1  0
 22 10  1  0
  4  5  1  0
  9 10  1  0
  2  3  1  0
 10 11  1  0
  4 25  1  0
 11 12  1  0
  5  6  2  0
 12 13  1  0
 13 14  1  0
  6  1  1  0
  1  2  2  0
  3  7  1  0
  3  4  2  0
  1  8  1  0
  8  9  1  0
 19 20  2  0
 25 26  2  0
 15 16  2  0
 19 15  1  0
 16 17  1  0
 17 18  2  0
 26 27  1  0
 27 28  1  0
 28 29  1  0
 29 25  1  0
 20 21  1  0
 28 30  2  0
M  END
>  <ID_NEW>
CPDPP3152

>  <pEC50>
7.6957211742671765

$$$$

  -MTS-   10172316532D 0   0.00000     0.00000     0

 44 48  0  0  1  0  0  0  0  0999 V2000
   -1.4650    1.3570    0.0000 C   0  0  0  0  0  0  0  0  0  0  0  0
   -3.7120    2.1900    0.0000 C   0  0  0  0  0  0  0  0  0  0  0  0
   -4.1090    2.1310    0.0000 C   0  0  0  0  0  0  0  0  0  0  0  0
   -3.4940    2.5380    0.0000 S   0  0  0  0  0  0  0  0  0  0  0  0
   -3.4460    1.8840    0.0000 N   0  0  0  0  0  0  0  0  0  0  0  0
   -4.2620    1.7640    0.0000 C   0  0  0  0  0  0  0  0  0  0  0  0
   -4.3470    2.4590    0.0000 C   0  0  0  0  0  0  0  0  0  0  0  0
   -3.1020    2.4410    0.0000 C   0  0  0  0  0  0  0  0  0  0  0  0
   -3.0690    2.0270    0.0000 C   0  0  0  0  0  0  0  0  0  0  0  0
   -4.6600    1.7060    0.0000 C   0  0  0  0  0  0  0  0  0  0  0  0
   -4.7660    2.4060    0.0000 C   0  0  0  0  0  0  0  0  0  0  0  0
   -2.7830    2.7110    0.0000 C   0  0  1  0  0  0  0  0  0  0  0  0
   -2.7130    1.7950    0.0000 C   0  0  0  0  0  0  0  0  0  0  0  0
   -4.9060    2.0330    0.0000 C   0  0  0  0  0  0  0  0  0  0  0  0
   -2.4070    2.5720    0.0000 O   0  0  0  0  0  0  0  0  0  0  0  0
   -5.3050    1.9770    0.0000 C   0  0  0  0  0  0  0  0  0  0  0  0
   -5.7080    1.9490    0.0000 F   0  0  0  0  0  0  0  0  0  0  0  0
   -5.2710    1.5850    0.0000 F   0  0  0  0  0  0  0  0  0  0  0  0
   -5.3380    2.3840    0.0000 F   0  0  0  0  0  0  0  0  0  0  0  0
   -2.0000    2.5750    0.0000 C   0  0  0  0  0  0  0  0  0  0  0  0
   -1.7980    2.2270    0.0000 C   0  0  0  0  0  0  0  0  0  0  0  0
   -1.4030    2.2260    0.0000 C   0  0  0  0  0  0  0  0  0  0  0  0
   -1.1970    2.5720    0.0000 C   0  0  0  0  0  0  0  0  0  0  0  0
   -1.4030    2.9340    0.0000 C   0  0  0  0  0  0  0  0  0  0  0  0
   -1.8000    2.9330    0.0000 C   0  0  0  0  0  0  0  0  0  0  0  0
   -1.1980    1.8870    0.0000 O   0  0  0  0  0  0  0  0  0  0  0  0
   -0.7890    2.5720    0.0000 C   0  0  0  0  0  0  0  0  0  0  0  0
   -0.5950    2.2280    0.0000 N   0  0  0  0  0  0  0  0  0  0  0  0
   -0.5940    2.9360    0.0000 N   0  0  0  0  0  0  0  0  0  0  0  0
   -0.1190    2.8260    0.0000 O   0  0  0  0  0  0  0  0  0  0  0  0
   -0.1170    2.3510    0.0000 C   0  0  0  0  0  0  0  0  0  0  0  0
    0.1480    2.1120    0.0000 O   0  0  0  0  0  0  0  0  0  0  0  0
   -2.7400    1.3850    0.0000 N   0  0  0  0  0  0  0  0  0  0  0  0
   -3.1080    1.1970    0.0000 C   0  0  0  0  0  0  0  0  0  0  0  0
   -3.1270    0.7810    0.0000 C   0  0  0  0  0  0  0  0  0  0  0  0
   -2.7800    0.5560    0.0000 C   0  0  0  0  0  0  0  0  0  0  0  0
   -2.4090    0.7500    0.0000 C   0  0  0  0  0  0  0  0  0  0  0  0
   -2.3970    1.1570    0.0000 C   0  0  0  0  0  0  0  0  0  0  0  0
   -2.8090    0.1380    0.0000 C   0  0  0  0  0  0  0  0  0  0  0  0
   -3.1800   -0.0390    0.0000 F   0  0  0  0  0  0  0  0  0  0  0  0
   -2.4620   -0.0780    0.0000 F   0  0  0  0  0  0  0  0  0  0  0  0
   -3.2010    0.2720    0.0000 F   0  0  0  0  0  0  0  0  0  0  0  0
   -2.8560    3.1260    0.0000 C   0  0  0  0  0  0  0  0  0  0  0  0
   -2.5350    3.3940    0.0000 C   0  0  0  0  0  0  0  0  0  0  0  0
 15 20  1  0  0  0  0
 20 21  2  0  0  0  0
 21 22  1  0  0  0  0
 22 23  2  0  0  0  0
 23 24  1  0  0  0  0
 24 25  2  0  0  0  0
 25 20  1  0  0  0  0
 22 26  1  0  0  0  0
 26  1  1  0  0  0  0
 23 27  1  0  0  0  0
 27 28  1  0  0  0  0
 27 29  2  0  0  0  0
 29 30  1  0  0  0  0
 28 31  1  0  0  0  0
 31 32  2  0  0  0  0
 30 31  1  0  0  0  0
 13 33  1  0  0  0  0
 33 34  1  0  0  0  0
  2  3  1  0  0  0  0
  2  4  1  0  0  0  0
 33 38  1  0  0  0  0
 34 35  1  0  0  0  0
 35 36  1  0  0  0  0
 36 37  1  0  0  0  0
 37 38  1  0  0  0  0
  2  5  2  0  0  0  0
 36 39  1  0  0  0  0
  3  6  1  0  0  0  0
 39 40  1  0  0  0  0
  3  7  2  0  0  0  0
 39 41  1  0  0  0  0
  4  8  1  0  0  0  0
 39 42  1  0  0  0  0
  5  9  1  0  0  0  0
 12 43  1  6  0  0  0
  6 10  2  0  0  0  0
 43 44  1  0  0  0  0
  7 11  1  0  0  0  0
  8 12  1  0  0  0  0
  9 13  1  0  0  0  0
 10 14  1  0  0  0  0
 12 15  1  0  0  0  0
 14 16  1  0  0  0  0
 16 17  1  0  0  0  0
 16 18  1  0  0  0  0
 16 19  1  0  0  0  0
  8  9  2  0  0  0  0
 11 14  2  0  0  0  0
M  END
>  <ID_NEW>
CPDPP3153

>  <pEC50>
7.663294159388102

$$$$

  -MTS-   10172316532D 0   0.00000     0.00000     0

 35 38  0  0  1  0  0  0  0  0999 V2000
    9.0800   -4.1010    0.0000 C   0  0  0  0  0  0  0  0  0  0  0  0
    9.5650   -4.7710    0.0000 N   0  0  0  0  0  0  0  0  0  0  0  0
   10.3510   -4.5170    0.0000 O   0  0  0  0  0  0  0  0  0  0  0  0
   10.3510   -3.6930    0.0000 C   0  0  0  0  0  0  0  0  0  0  0  0
    9.5670   -3.4360    0.0000 N   0  0  0  0  0  0  0  0  0  0  0  0
   11.0200   -3.2090    0.0000 O   0  0  0  0  0  0  0  0  0  0  0  0
    8.2530   -4.1010    0.0000 C   0  0  0  0  0  0  0  0  0  0  0  0
    6.6070   -4.1820    0.0000 C   0  0  0  0  0  0  0  0  0  0  0  0
    7.0480   -4.8760    0.0000 C   0  0  0  0  0  0  0  0  0  0  0  0
    7.8720   -4.8760    0.0000 C   0  0  0  0  0  0  0  0  0  0  0  0
    7.8010   -3.4080    0.0000 C   0  0  0  0  0  0  0  0  0  0  0  0
    6.9800   -3.4080    0.0000 C   0  0  0  0  0  0  0  0  0  0  0  0
    8.1780   -2.6740    0.0000 Cl  0  0  0  0  0  0  0  0  0  0  0  0
    5.7830   -4.1820    0.0000 O   0  0  0  0  0  0  0  0  0  0  0  0
    3.1670   -5.0920    0.0000 C   0  0  0  0  0  0  0  0  0  0  0  0
    3.9300   -5.4220    0.0000 S   0  0  0  0  0  0  0  0  0  0  0  0
    4.4800   -4.8070    0.0000 C   0  0  0  0  0  0  0  0  0  0  0  0
    4.0640   -4.0940    0.0000 C   0  0  0  0  0  0  0  0  0  0  0  0
    3.2500   -4.2690    0.0000 N   0  0  0  0  0  0  0  0  0  0  0  0
    4.3970   -3.3400    0.0000 C   0  0  0  0  0  0  0  0  0  0  0  0
    5.3000   -4.8900    0.0000 C   0  0  2  0  0  0  0  0  0  0  0  0
    2.4550   -5.5110    0.0000 C   0  0  0  0  0  0  0  0  0  0  0  0
    1.7400   -5.1000    0.0000 C   0  0  0  0  0  0  0  0  0  0  0  0
    1.0340   -5.5180    0.0000 C   0  0  0  0  0  0  0  0  0  0  0  0
    1.0340   -6.3450    0.0000 C   0  0  0  0  0  0  0  0  0  0  0  0
    1.7570   -6.7520    0.0000 C   0  0  0  0  0  0  0  0  0  0  0  0
    2.4550   -6.3320    0.0000 C   0  0  0  0  0  0  0  0  0  0  0  0
    0.3230   -6.7630    0.0000 C   0  0  0  0  0  0  0  0  0  0  0  0
   -0.3950   -6.3570    0.0000 F   0  0  0  0  0  0  0  0  0  0  0  0
    0.3230   -7.5880    0.0000 F   0  0  0  0  0  0  0  0  0  0  0  0
    0.1020   -5.9680    0.0000 F   0  0  0  0  0  0  0  0  0  0  0  0
    5.6390   -5.6430    0.0000 C   0  0  0  0  0  0  0  0  0  0  0  0
    5.5570   -6.4620    0.0000 C   0  0  0  0  0  0  0  0  0  0  0  0
    4.8050   -6.8020    0.0000 C   0  0  0  0  0  0  0  0  0  0  0  0
    6.2270   -6.9440    0.0000 C   0  0  0  0  0  0  0  0  0  0  0  0
  7  1  1  0  0  0  0
  1  2  2  0  0  0  0
  2  3  1  0  0  0  0
  3  4  1  0  0  0  0
  4  5  1  0  0  0  0
  5  1  1  0  0  0  0
  4  6  2  0  0  0  0
 18 20  1  0  0  0  0
 17 21  1  0  0  0  0
 21 14  1  0  0  0  0
 15 16  1  0  0  0  0
 16 17  1  0  0  0  0
 17 18  2  0  0  0  0
 18 19  1  0  0  0  0
 19 15  2  0  0  0  0
 15 22  1  0  0  0  0
  8  9  2  0  0  0  0
  9 10  1  0  0  0  0
 10  7  2  0  0  0  0
  7 11  1  0  0  0  0
 11 12  2  0  0  0  0
 12  8  1  0  0  0  0
 11 13  1  0  0  0  0
  8 14  1  0  0  0  0
 22 23  2  0  0  0  0
 23 24  1  0  0  0  0
 24 25  2  0  0  0  0
 25 26  1  0  0  0  0
 26 27  2  0  0  0  0
 27 22  1  0  0  0  0
 25 28  1  0  0  0  0
 28 29  1  0  0  0  0
 28 30  1  0  0  0  0
 28 31  1  0  0  0  0
 21 32  1  1  0  0  0
 33 32  1  0  0  0  0
 33 34  1  0  0  0  0
 33 35  1  0  0  0  0
M  END
>  <ID_NEW>
CPDPP3154

>  <pEC50>
7.660200247610429

$$$$

  -MTS-   10172316532D 0   0.00000     0.00000     0

 37 39  0  0  1  0  0  0  0  0999 V2000
   -0.0010   -3.7790    0.0000 C   0  0  0  0  0  0  0  0  0  0  0  0
   -0.0030   -4.6070    0.0000 C   0  0  0  0  0  0  0  0  0  0  0  0
    0.7120   -5.0190    0.0000 C   0  0  0  0  0  0  0  0  0  0  0  0
    1.4290   -4.6060    0.0000 C   0  0  0  0  0  0  0  0  0  0  0  0
    1.4260   -3.7760    0.0000 C   0  0  0  0  0  0  0  0  0  0  0  0
    0.7100   -3.3660    0.0000 C   0  0  0  0  0  0  0  0  0  0  0  0
    2.1390   -3.3600    0.0000 C   0  0  0  0  0  0  0  0  0  0  0  0
    2.1360   -2.5350    0.0000 O   0  0  0  0  0  0  0  0  0  0  0  0
   -0.7170   -5.0180    0.0000 C   0  0  0  0  0  0  0  0  0  0  0  0
   -1.4310   -4.6050    0.0000 F   0  0  0  0  0  0  0  0  0  0  0  0
   -0.7180   -5.8430    0.0000 F   0  0  0  0  0  0  0  0  0  0  0  0
   -0.9300   -4.2210    0.0000 F   0  0  0  0  0  0  0  0  0  0  0  0
    9.2920   -4.3540    0.0000 N   0  0  0  0  0  0  0  0  0  0  0  0
   10.1170   -4.3540    0.0000 N   0  0  0  0  0  0  0  0  0  0  0  0
   10.3760   -3.5700    0.0000 C   0  0  0  0  0  0  0  0  0  0  0  0
    9.7040   -3.0830    0.0000 S   0  0  0  0  0  0  0  0  0  0  0  0
    9.0440   -3.5700    0.0000 C   0  0  0  0  0  0  0  0  0  0  0  0
    8.2620   -3.3150    0.0000 N   0  0  0  0  0  0  0  0  0  0  0  0
   11.1670   -3.3160    0.0000 C   0  0  0  0  0  0  0  0  0  0  0  0
   11.7790   -3.8690    0.0000 C   0  0  0  0  0  0  0  0  0  0  0  0
   11.3390   -2.5090    0.0000 C   0  0  0  0  0  0  0  0  0  0  0  0
    5.0540   -4.0010    0.0000 C   0  0  0  0  0  0  0  0  0  0  0  0
    4.3110   -4.0960    0.0000 C   0  0  1  0  0  0  0  0  0  0  0  0
    5.5130   -4.5910    0.0000 C   0  0  0  0  0  0  0  0  0  0  0  0
    5.3390   -3.3060    0.0000 C   0  0  0  0  0  0  0  0  0  0  0  0
    3.8510   -3.5060    0.0000 C   0  0  0  0  0  0  0  0  0  0  0  0
    4.0240   -4.7950    0.0000 C   0  0  0  0  0  0  0  0  0  0  0  0
    6.2580   -4.4930    0.0000 C   0  0  0  0  0  0  0  0  0  0  0  0
    6.0880   -3.2080    0.0000 C   0  0  0  0  0  0  0  0  0  0  0  0
    3.1020   -3.6110    0.0000 N   0  0  0  0  0  0  0  0  0  0  0  0
    6.5480   -3.8080    0.0000 C   0  0  0  0  0  0  0  0  0  0  0  0
    7.2620   -3.6080    0.0000 S   0  0  0  0  0  0  0  0  0  0  0  0
    7.4540   -4.3250    0.0000 O   0  0  0  0  0  0  0  0  0  0  0  0
    7.0670   -2.8920    0.0000 O   0  0  0  0  0  0  0  0  0  0  0  0
    2.1440   -5.0170    0.0000 O   0  0  0  0  0  0  0  0  0  0  0  0
    2.1450   -5.8420    0.0000 C   0  0  0  0  0  0  0  0  0  0  0  0
    2.8600   -6.2540    0.0000 C   0  0  0  0  0  0  0  0  0  0  0  0
  3  4  2  0  0  0  0
  9 12  1  0  0  0  0
  5  7  1  0  0  0  0
  4  5  1  0  0  0  0
  2  3  1  0  0  0  0
  7  8  2  0  0  0  0
  5  6  2  0  0  0  0
  6  1  1  0  0  0  0
  1  2  2  0  0  0  0
  2  9  1  0  0  0  0
  9 10  1  0  0  0  0
 19 21  1  0  0  0  0
 13 14  1  0  0  0  0
 14 15  2  0  0  0  0
 15 16  1  0  0  0  0
 16 17  1  0  0  0  0
 17 13  2  0  0  0  0
 17 18  1  0  0  0  0
 15 19  1  0  0  0  0
 19 20  1  0  0  0  0
 24 28  1  0  0  0  0
 25 29  2  0  0  0  0
 26 30  1  0  0  0  0
 28 31  2  0  0  0  0
 29 31  1  0  0  0  0
 22 23  1  0  0  0  0
 22 24  2  0  0  0  0
 31 32  1  0  0  0  0
 22 25  1  0  0  0  0
 32 33  2  0  0  0  0
 23 26  1  0  0  0  0
 32 34  2  0  0  0  0
 23 27  1  6  0  0  0
 18 32  1  0  0  0  0
  7 30  1  0  0  0  0
  4 35  1  0  0  0  0
 35 36  1  0  0  0  0
  9 11  1  0  0  0  0
 36 37  1  0  0  0  0
M  END
>  <ID_NEW>
CPDPP3155

>  <pEC50>
7.652008001355261

$$$$

  SciTegic12180813102D

 38 41  0  0  0  0            999 V2000
   -1.5905    1.6211    0.0000 C   0  0
   -2.4338    1.6220    0.0000 C   0  0
   -2.8599    2.3124    0.0000 C   0  0
   -3.7191    2.3089    0.0000 C   0  0
   -4.1354    1.6215    0.0000 C   0  0
   -3.7189    0.9281    0.0000 C   0  0
   -2.8622    0.9267    0.0000 C   0  0
   -1.1626    0.9325    0.0000 O   0  0
   -2.4275    3.0029    0.0000 O   0  0
   -2.8584    3.7006    0.0000 C   0  0
   -3.7121    3.7036    0.0000 C   0  0
   -4.9795    1.6218    0.0000 C   0  0
   -5.8292    1.6209    0.0000 F   0  0
   -4.9825    2.4154    0.0000 F   0  0
   -4.9794    0.8245    0.0000 F   0  0
    2.4562    2.6848    0.0000 C   0  0
    3.1974    3.1019    0.0000 S   0  0
    2.7720    3.7963    0.0000 O   0  0
    3.9316    3.5027    0.0000 N   0  0
    3.6222    2.4017    0.0000 O   0  0
   -1.1649    2.3118    0.0000 N   0  0
    2.4568    1.9075    0.0000 C   0  0
    1.7216    3.0996    0.0000 C   0  0
    1.7230    1.5051    0.0000 C   0  0
    0.9796    1.9077    0.0000 C   0  0
    0.9816    2.6847    0.0000 C   0  0
    0.1793    2.9351    0.0000 C   0  0
   -0.3108    2.3056    0.0000 C   0  0
    0.1802    1.6530    0.0000 C   0  0
    4.6743    3.1143    0.0000 C   0  0
    5.4945    3.3614    0.0000 S   0  0
    5.9806    2.7333    0.0000 C   0  0
    5.4978    2.0843    0.0000 N   0  0
    4.6817    2.3321    0.0000 N   0  0
    6.8332    2.7599    0.0000 C   0  0
    7.2456    3.4626    0.0000 C   0  0
    7.2725    2.0718    0.0000 C   0  0
    3.1777    1.4815    0.0000 C   0  0
 19 30  1  0
 30 31  1  0
 31 32  1  0
 32 33  2  0
 33 34  1  0
 34 30  2  0
 32 35  1  0
 35 36  1  0
 35 37  1  0
  1  2  1  0
  2  3  2  0
  3  4  1  0
  4  5  2  0
  5  6  1  0
  6  7  2  0
  7  2  1  0
  1  8  2  0
  3  9  1  0
  9 10  1  0
 10 11  1  0
  5 12  1  0
 12 13  1  0
 12 14  1  0
 12 15  1  0
 21  1  1  0
 26 27  1  0
 27 28  1  0
 28 29  1  0
 29 25  1  0
 28 21  1  0
 17 20  2  0
 16 17  1  0
 17 18  2  0
 17 19  1  0
 22 16  2  0
 16 23  1  0
 23 26  2  0
 25 24  2  0
 22 38  1  0
 24 22  1  0
 25 26  1  0
M  END
>  <ID_NEW>
CPDPP3156

>  <pEC50>
7.64584419560891

$$$$

  SciTegic12180813032D

 36 39  0  0  0  0            999 V2000
   -3.4476   -1.9071    0.0000 C   0  0
   -4.2221   -2.3308    0.0000 C   0  0
   -4.2427   -3.2139    0.0000 O   0  0
   -5.0173   -3.6376    0.0000 C   0  0
   -3.4547   -1.0214    0.0000 N   0  0
   -1.1556    0.3000    0.0000 C   0  0
   -1.1567   -0.5856    0.0000 C   0  0
   -0.3919   -1.0277    0.0000 C   0  0
    0.3745   -0.5852    0.0000 C   0  0
    0.3717    0.3037    0.0000 C   0  0
   -0.3937    0.7420    0.0000 C   0  0
   -1.9215   -1.0268    0.0000 C   0  0
   -2.6899   -0.5803    0.0000 C   0  0
    1.1346    0.7481    0.0000 C   0  0
    1.1397   -1.0257    0.0000 C   0  0
   -4.9845    2.4704    0.0000 C   0  0
   -5.7590    2.0269    0.0000 C   0  0
   -5.7531    1.1389    0.0000 C   0  0
   -4.2160    2.0327    0.0000 C   0  0
   -4.2108    1.1460    0.0000 C   0  0
   -4.9774    0.6937    0.0000 C   0  0
   -4.7865   -0.1758    0.0000 N   0  0
   -3.9014   -0.2597    0.0000 C   0  0
   -3.5464    0.5563    0.0000 S   0  0
   -4.9866    3.3537    0.0000 C   0  0
   -4.2189    3.7988    0.0000 F   0  0
   -5.7562    3.7900    0.0000 F   0  0
   -4.1267    3.1254    0.0000 F   0  0
    1.9420    0.3948    0.0000 N   0  0
    2.5302    1.0532    0.0000 O   0  0
    2.0858    1.8162    0.0000 C   0  0
    1.2230    1.6291    0.0000 N   0  0
    2.4418    2.6242    0.0000 O   0  0
   -5.0376   -4.5203    0.0000 C   0  0
   -5.8122   -4.9440    0.0000 O   0  0
   -5.8326   -5.8266    0.0000 C   0  0
  7  8  1  0
  8  9  2  0
  9 10  1  0
 10 11  2  0
 11  6  1  0
  7 12  1  0
 12 13  1  0
 13  5  1  0
 10 14  1  0
  9 15  1  0
 16 17  2  0
 17 18  1  0
 18 21  2  0
 20 19  2  0
 19 16  1  0
 20 21  1  0
 21 22  1  0
 22 23  2  0
 23 24  1  0
 24 20  1  0
 16 25  1  0
 25 26  1  0
 25 27  1  0
 25 28  1  0
 23  5  1  0
  1  2  1  0
  2  3  1  0
  3  4  1  0
  1  5  1  0
  6  7  2  0
 14 29  2  0
 29 30  1  0
 30 31  1  0
 31 32  1  0
 32 14  1  0
 31 33  2  0
  4 34  1  0
 34 35  1  0
 35 36  1  0
M  END
>  <ID_NEW>
CPDPP3157

>  <pEC50>
7.64446528385193

$$$$

  SciTegic12180813582D

 37 41  0  0  0  0            999 V2000
    6.9827    0.0911    0.0000 C   0  0
    7.2488   -0.7429    0.0000 N   0  0
    8.1271   -0.7523    0.0000 O   0  0
    8.4072    0.0801    0.0000 C   0  0
    7.7022    0.6037    0.0000 N   0  0
    9.2454    0.3427    0.0000 O   0  0
    4.6249    0.8529    0.0000 C   0  0
    4.7962    0.0452    0.0000 C   0  0
    5.5830   -0.2090    0.0000 C   0  0
    6.1989    0.3437    0.0000 C   0  0
    6.0194    1.1556    0.0000 C   0  0
    5.2366    1.4040    0.0000 C   0  0
    6.6329    1.7133    0.0000 Cl  0  0
    3.8383    1.1057    0.0000 S   0  0
    4.0906    1.8926    0.0000 O   0  0
    3.5896    0.3221    0.0000 O   0  0
   -1.5105   -0.4349    0.0000 C   0  0
   -0.8769   -0.9669    0.0000 N   0  0
   -0.1014   -0.6838    0.0000 C   0  0
    0.0416    0.1308    0.0000 C   0  0
   -0.5972    0.6618    0.0000 C   0  0
   -1.3700    0.3759    0.0000 C   0  0
   -2.2812   -0.7181    0.0000 C   0  0
   -2.9150   -0.1886    0.0000 F   0  0
   -2.4225   -1.5308    0.0000 F   0  0
   -2.3603    0.1089    0.0000 F   0  0
    0.8174    0.4113    0.0000 C   0  0
    1.4510   -0.1207    0.0000 C   0  0
    2.2291    0.1656    0.0000 C   0  0
    0.9637    1.2226    0.0000 C   0  0
    1.7324    1.5116    0.0000 C   0  0
    2.3681    0.9753    0.0000 C   0  0
    3.0746    1.4142    0.0000 N   0  0
    2.8754    2.2218    0.0000 C   0  0
    2.0459    2.2819    0.0000 C   0  0
    1.2900    2.6313    0.0000 C   0  0
    1.9665    3.1083    0.0000 C   0  0
  7  8  2  0
  8  9  1  0
  9 10  2  0
 10 11  1  0
 11 12  2  0
 12  7  1  0
 11 13  1  0
 10  1  1  0
  7 14  1  0
 14 15  2  0
 14 16  2  0
 17 18  2  0
 18 19  1  0
 19 20  2  0
 20 21  1  0
 21 22  2  0
 22 17  1  0
 17 23  1  0
 23 24  1  0
 23 25  1  0
 23 26  1  0
 29 32  2  0
 27 28  2  0
 31 30  2  0
 30 27  1  0
 28 29  1  0
 27 20  1  0
 31 32  1  0
 32 33  1  0
 33 34  1  0
 34 35  1  0
 35 31  1  0
 33 14  1  0
 35 36  1  0
 35 37  1  0
  1  2  2  0
  2  3  1  0
  3  4  1  0
  4  5  1  0
  5  1  1  0
  4  6  2  0
M  END
>  <ID_NEW>
CPDPP3158

>  <pEC50>
7.625002750477984

$$$$

  SciTegic12180812592D

 38 42  0  0  0  0            999 V2000
   -4.8126    2.9167    0.0000 O   0  0
   -4.3339    3.2699    0.0000 C   0  0
   -4.5244    3.8317    0.0000 C   0  0
   -5.1161    3.8267    0.0000 C   0  0
   -5.2973    3.2619    0.0000 C   0  0
   -3.7730    3.0940    0.0000 C   0  0
   -3.6432    2.5171    0.0000 N   0  0
   -5.0514    0.8959    0.0000 C   0  0
   -5.0526    0.4477    0.0000 C   0  0
   -4.6586    0.2265    0.0000 C   0  0
   -4.2713    0.4481    0.0000 C   0  0
   -4.2742    0.8995    0.0000 C   0  0
   -4.6604    1.1253    0.0000 C   0  0
   -5.4424    0.2274    0.0000 C   0  0
   -5.8315    0.4488    0.0000 F   0  0
   -5.4430   -0.2268    0.0000 F   0  0
   -5.5594    0.6578    0.0000 F   0  0
   -3.9106    1.1675    0.0000 C   0  0
   -3.4793    1.0311    0.0000 S   0  0
   -3.2190    1.3941    0.0000 C   0  0
   -3.4827    1.7576    0.0000 C   0  0
   -3.9092    1.6198    0.0000 N   0  0
   -2.7649    1.3936    0.0000 C   0  0
   -2.5278    1.6372    0.0000 O   0  0
   -2.1720    1.6340    0.0000 C   0  0
   -1.9990    1.3310    0.0000 C   0  0
   -1.6438    1.3274    0.0000 C   0  0
   -1.4666    1.6327    0.0000 C   0  0
   -1.6451    1.9386    0.0000 C   0  0
   -1.9951    1.9394    0.0000 C   0  0
   -1.4735    1.0238    0.0000 F   0  0
   -1.1101    1.6303    0.0000 C   0  0
   -0.9094    1.3392    0.0000 N   0  0
   -0.5748    1.4497    0.0000 O   0  0
   -0.5734    1.8071    0.0000 C   0  0
   -0.9072    1.9163    0.0000 N   0  0
   -0.2853    2.0129    0.0000 O   0  0
   -3.3437    2.1837    0.0000 C   0  0
  2  3  2  0
  1  2  1  0
  3  4  1  0
  4  5  2  0
  5  1  1  0
  2  6  1  0
  6  7  1  0
  8  9  2  0
  9 10  1  0
 10 11  2  0
 11 12  1  0
 12 13  2  0
 13  8  1  0
  9 14  1  0
 14 15  1  0
 14 16  1  0
 14 17  1  0
 12 18  1  0
 21 22  1  0
 19 20  1  0
 18 19  1  0
 20 21  2  0
 22 18  2  0
 20 23  1  0
 23 24  1  0
 24 25  1  0
 25 26  2  0
 26 27  1  0
 27 28  2  0
 28 29  1  0
 29 30  2  0
 30 25  1  0
 27 31  1  0
 28 32  1  0
 33 34  1  0
 32 33  2  0
 34 35  1  0
 35 36  1  0
 36 32  1  0
 35 37  2  0
 21 38  1  0
 38  7  1  0
M  END
>  <ID_NEW>
CPDPP3159

>  <pEC50>
7.619015636673788

$$$$

  SciTegic12180813032D

 42 46  0  0  0  0            999 V2000
    1.2635   -1.4591    0.0000 C   0  0
    1.6988   -2.2355    0.0000 C   0  0
    2.5914   -2.2433    0.0000 C   0  0
    2.6007   -0.6981    0.0000 C   0  0
    1.7137   -0.6939    0.0000 C   0  0
    3.0339   -1.4751    0.0000 C   0  0
    3.0490    0.0625    0.0000 Cl  0  0
    3.9173   -1.4814    0.0000 C   0  0
    4.4308   -2.1960    0.0000 N   0  0
    5.2729   -1.9290    0.0000 O   0  0
    5.2792   -1.0455    0.0000 C   0  0
    4.4409   -0.7667    0.0000 N   0  0
    5.9975   -0.5313    0.0000 O   0  0
    0.5889   -1.5737    0.0000 O   0  0
   -4.1589   -1.3886    0.0000 C   0  0
   -4.5828   -2.0991    0.0000 C   0  0
   -4.1795   -2.8194    0.0000 C   0  0
   -3.3524   -2.8303    0.0000 C   0  0
   -2.9304   -2.1150    0.0000 C   0  0
   -3.3361   -1.3977    0.0000 C   0  0
   -2.1054   -2.1226    0.0000 C   0  0
   -1.6296   -2.7922    0.0000 N   0  0
   -0.8418   -2.5444    0.0000 C   0  0
   -0.8355   -1.7182    0.0000 C   0  0
   -1.6195   -1.4583    0.0000 S   0  0
   -0.1785   -3.0349    0.0000 C   0  0
   -0.1631   -1.2346    0.0000 C   0  0
   -5.4077   -2.0878    0.0000 C   0  0
   -5.8301   -2.7965    0.0000 F   0  0
   -5.8103   -1.3677    0.0000 F   0  0
   -4.8325   -2.6791    0.0000 F   0  0
   -0.2453   -0.4137    0.0000 C   0  0
    0.4245    0.0680    0.0000 C   0  0
    0.3423    0.8889    0.0000 C   0  0
   -0.4922    2.0437    0.0000 C   0  0
   -0.4070    1.2253    0.0000 O   0  0
    0.1757    2.5280    0.0000 C   0  0
    0.9276    2.1885    0.0000 C   0  0
    1.5951    2.6721    0.0000 C   0  0
    1.5100    3.4936    0.0000 C   0  0
    0.7517    3.8292    0.0000 C   0  0
    0.0873    3.3436    0.0000 C   0  0
  1  2  2  0
  4  5  2  0
  5  1  1  0
  2  3  1  0
  3  6  2  0
  4  6  1  0
  4  7  1  0
  6  8  1  0
 14  1  1  0
  8  9  2  0
  9 10  1  0
 10 11  1  0
 11 12  1  0
 12  8  1  0
 11 13  2  0
 17 18  2  0
 19 21  1  0
 22 23  1  0
 18 19  1  0
 16 17  1  0
 19 20  2  0
 21 22  2  0
 23 24  2  0
 24 25  1  0
 25 21  1  0
 20 15  1  0
 24 27  1  0
 15 16  2  0
 23 26  1  0
 16 28  1  0
 28 29  1  0
 28 30  1  0
 28 31  1  0
 27 14  1  0
 27 32  1  0
 32 33  1  0
 33 34  1  0
 35 36  1  0
 36 34  1  0
 35 37  1  0
 37 38  2  0
 38 39  1  0
 39 40  2  0
 40 41  1  0
 41 42  2  0
 42 37  1  0
M  END
>  <ID_NEW>
CPDPP3160

>  <pEC50>
7.617734715588471

$$$$

  SciTegic12180813062D

 38 41  0  0  0  0            999 V2000
   -2.1791    2.7735    0.0000 C   0  0
   -2.9066    2.3618    0.0000 C   0  0
   -2.1657    3.6194    0.0000 O   0  0
   -3.6290    2.7820    0.0000 C   0  0
   -4.3560    2.3585    0.0000 C   0  0
   -4.3617    1.5243    0.0000 C   0  0
   -3.6302    1.1027    0.0000 C   0  0
   -2.9102    1.5245    0.0000 C   0  0
   -2.1774    1.0899    0.0000 O   0  0
   -2.1865    0.2441    0.0000 C   0  0
   -1.4619   -0.1737    0.0000 C   0  0
   -5.0969    1.0991    0.0000 C   0  0
   -5.8319    0.6775    0.0000 F   0  0
   -5.5170    1.8342    0.0000 F   0  0
   -4.6735    0.3642    0.0000 F   0  0
    4.2477    3.0906    0.0000 C   0  0
    4.2551    2.2674    0.0000 S   0  0
    5.0345    3.3539    0.0000 N   0  0
    5.5179    2.6986    0.0000 N   0  0
    5.0464    2.0239    0.0000 C   0  0
    5.3233    1.2409    0.0000 C   0  0
    4.7845    0.6195    0.0000 C   0  0
    6.1264    1.0922    0.0000 C   0  0
    3.5256    3.5025    0.0000 N   0  0
    2.8096    3.0782    0.0000 S   0  0
    2.0891    2.6570    0.0000 C   0  0
    2.3883    3.7977    0.0000 O   0  0
    3.2302    2.3572    0.0000 O   0  0
   -1.4320    2.2549    0.0000 N   0  0
    2.0898    1.8339    0.0000 C   0  0
    1.3714    3.0718    0.0000 C   0  0
    1.3727    1.4189    0.0000 C   0  0
    0.6584    1.8341    0.0000 C   0  0
    0.6604    2.6568    0.0000 C   0  0
   -0.1251    2.9115    0.0000 C   0  0
   -0.6070    2.2487    0.0000 C   0  0
   -0.1242    1.5793    0.0000 C   0  0
    2.8116    1.4195    0.0000 Cl  0  0
 25 24  1  0
 30 26  2  0
 26 31  1  0
 31 34  2  0
 33 32  2  0
 32 30  1  0
 33 34  1  0
 34 35  1  0
 35 36  1  0
 36 37  1  0
 37 33  1  0
 36 29  1  0
 30 38  1  0
 25 28  2  0
 26 25  1  0
 25 27  2  0
 17 20  1  0
 19 18  1  0
 18 16  2  0
 19 20  2  0
 20 21  1  0
 21 22  1  0
 21 23  1  0
 24 16  1  0
 16 17  1  0
 29  1  1  0
  1  2  1  0
  1  3  2  0
  2  4  2  0
  4  5  1  0
  5  6  2  0
  6  7  1  0
  7  8  2  0
  8  2  1  0
  8  9  1  0
  9 10  1  0
 10 11  1  0
  6 12  1  0
 12 13  1  0
 12 14  1  0
 12 15  1  0
M  END
>  <ID_NEW>
CPDPP3161

>  <pEC50>
7.6151055214336125

$$$$

  SciTegic12180813102D

 38 41  0  0  0  0            999 V2000
    0.9428   -4.1098    0.0000 C   0  0
    1.3551   -4.8222    0.0000 C   0  0
    1.3574   -3.3955    0.0000 C   0  0
    2.1837   -4.8216    0.0000 C   0  0
    2.1849   -3.3929    0.0000 C   0  0
    2.5975   -4.1119    0.0000 C   0  0
    2.6050   -5.5420    0.0000 O   0  0
    3.4256   -4.1109    0.0000 C   0  0
    3.8413   -4.8234    0.0000 O   0  0
    0.1205   -4.1195    0.0000 C   0  0
    3.4372   -5.5404    0.0000 C   0  0
    3.8499   -6.2506    0.0000 C   0  0
   -0.7051   -4.1255    0.0000 F   0  0
    0.1089   -3.2940    0.0000 F   0  0
    0.1274   -4.9429    0.0000 F   0  0
    8.8017   -2.1504    0.0000 N   0  0
    9.5144   -2.5676    0.0000 C   0  0
    9.6863   -3.3823    0.0000 N   0  0
   10.5069   -3.4709    0.0000 N   0  0
   10.8491   -2.7249    0.0000 C   0  0
   10.2368   -2.1614    0.0000 S   0  0
   11.6642   -2.5600    0.0000 C   0  0
    5.9332   -2.9788    0.0000 C   0  0
    5.9332   -3.8037    0.0000 C   0  0
    5.1497   -2.7231    0.0000 C   0  0
    6.6441   -2.5635    0.0000 C   0  0
    5.1461   -4.0558    0.0000 C   0  0
    6.6420   -4.2155    0.0000 C   0  0
    4.6657   -3.3957    0.0000 C   0  0
    7.3592   -2.9776    0.0000 C   0  0
    7.3618   -3.8016    0.0000 C   0  0
    3.8403   -3.3972    0.0000 N   0  0
    8.0828   -2.5632    0.0000 S   0  0
    8.4943   -3.2866    0.0000 O   0  0
    7.6705   -1.8448    0.0000 O   0  0
   12.4782   -2.4036    0.0000 F   0  0
   11.8249   -3.3717    0.0000 F   0  0
   11.5078   -1.7470    0.0000 F   0  0
 10 15  1  0
 33 16  1  0
 33 34  2  0
 33 35  2  0
 30 33  1  0
 16 17  1  0
 17 18  2  0
 18 19  1  0
 19 20  2  0
 20 21  1  0
 21 17  1  0
 20 22  1  0
 23 24  2  0
 23 25  1  0
 23 26  1  0
 24 27  1  0
 24 28  1  0
 25 29  1  0
 26 30  2  0
 28 31  2  0
 29 32  1  0
 27 29  1  0
 30 31  1  0
 22 36  1  0
 22 37  1  0
 22 38  1  0
  8  9  2  0
  5  6  1  0
  1 10  1  0
  1  2  2  0
  1  3  1  0
  2  4  1  0
  3  5  2  0
  4  6  2  0
  4  7  1  0
  6  8  1  0
  7 11  1  0
 11 12  1  0
 10 13  1  0
 10 14  1  0
 32  8  1  0
M  END
>  <ID_NEW>
CPDPP3162

>  <pEC50>
7.611371774682404

$$$$

  -MTS-   10172316532D 0   0.00000     0.00000     0

 44 48  0  0  1  0  0  0  0  0999 V2000
   -4.0750    0.3790    0.0000 C   0  0  0  0  0  0  0  0  0  0  0  0
   -4.2040    0.8500    0.0000 C   0  0  2  0  0  0  0  0  0  0  0  0
   -4.6750    0.9770    0.0000 C   0  0  0  0  0  0  0  0  0  0  0  0
   -5.0200    0.6290    0.0000 C   0  0  0  0  0  0  0  0  0  0  0  0
   -4.8950    0.1540    0.0000 C   0  0  1  0  0  0  0  0  0  0  0  0
   -4.4170    0.0320    0.0000 C   0  0  0  0  0  0  0  0  0  0  0  0
   -5.2360   -0.1890    0.0000 C   0  0  0  0  0  0  0  0  0  0  0  0
   -3.8600    1.1980    0.0000 C   0  0  0  0  0  0  0  0  0  0  0  0
   -3.3780    1.1170    0.0000 N   0  0  0  0  0  0  0  0  0  0  0  0
   -3.1540    1.5580    0.0000 C   0  0  0  0  0  0  0  0  0  0  0  0
   -3.5020    1.8980    0.0000 C   0  0  0  0  0  0  0  0  0  0  0  0
   -3.9370    1.6790    0.0000 S   0  0  0  0  0  0  0  0  0  0  0  0
   -2.6750    1.6320    0.0000 C   0  0  0  0  0  0  0  0  0  0  0  0
   -3.4290    2.3830    0.0000 C   0  0  1  0  0  0  0  0  0  0  0  0
   -2.9710    2.5550    0.0000 O   0  0  0  0  0  0  0  0  0  0  0  0
   -4.2630    2.5120    0.0000 C   0  0  0  0  0  0  0  0  0  0  0  0
   -2.5040    2.6870    0.0000 C   0  0  0  0  0  0  0  0  0  0  0  0
   -2.1560    2.3420    0.0000 C   0  0  0  0  0  0  0  0  0  0  0  0
   -1.6890    2.4740    0.0000 C   0  0  0  0  0  0  0  0  0  0  0  0
   -1.5670    2.9460    0.0000 C   0  0  0  0  0  0  0  0  0  0  0  0
   -1.9140    3.2860    0.0000 C   0  0  0  0  0  0  0  0  0  0  0  0
   -2.3820    3.1540    0.0000 C   0  0  0  0  0  0  0  0  0  0  0  0
   -1.0970    3.0770    0.0000 C   0  0  0  0  0  0  0  0  0  0  0  0
   -0.7490    2.7370    0.0000 N   0  0  0  0  0  0  0  0  0  0  0  0
   -0.9720    3.5470    0.0000 N   0  0  0  0  0  0  0  0  0  0  0  0
   -1.3380    2.1330    0.0000 O   0  0  0  0  0  0  0  0  0  0  0  0
   -1.4650    1.6590    0.0000 C   0  0  0  0  0  0  0  0  0  0  0  0
   -2.3660    1.2550    0.0000 N   0  0  0  0  0  0  0  0  0  0  0  0
   -2.5410    0.7990    0.0000 C   0  0  0  0  0  0  0  0  0  0  0  0
   -2.2370    0.4190    0.0000 C   0  0  0  0  0  0  0  0  0  0  0  0
   -1.7520    0.4970    0.0000 C   0  0  0  0  0  0  0  0  0  0  0  0
   -1.5780    0.9520    0.0000 C   0  0  0  0  0  0  0  0  0  0  0  0
   -1.8850    1.3300    0.0000 C   0  0  0  0  0  0  0  0  0  0  0  0
   -1.4460    0.1180    0.0000 C   0  0  0  0  0  0  0  0  0  0  0  0
   -1.6250   -0.3410    0.0000 F   0  0  0  0  0  0  0  0  0  0  0  0
   -0.9650    0.1920    0.0000 F   0  0  0  0  0  0  0  0  0  0  0  0
   -1.8940   -0.0790    0.0000 F   0  0  0  0  0  0  0  0  0  0  0  0
   -5.7080   -0.0640    0.0000 F   0  0  0  0  0  0  0  0  0  0  0  0
   -5.1080   -0.6600    0.0000 F   0  0  0  0  0  0  0  0  0  0  0  0
   -5.4810    0.2350    0.0000 F   0  0  0  0  0  0  0  0  0  0  0  0
   -0.4870    3.5500    0.0000 O   0  0  0  0  0  0  0  0  0  0  0  0
   -0.3290    2.9790    0.0000 C   0  0  0  0  0  0  0  0  0  0  0  0
    0.1040    2.9330    0.0000 O   0  0  0  0  0  0  0  0  0  0  0  0
   -3.7790    2.7330    0.0000 C   0  0  0  0  0  0  0  0  0  0  0  0
  1  2  1  0  0  0  0
  1  6  1  0  0  0  0
  2  3  1  0  0  0  0
  3  4  1  0  0  0  0
  4  5  1  0  0  0  0
  5  6  1  0  0  0  0
  5  7  1  1  0  0  0
  2  8  1  6  0  0  0
  8  9  2  0  0  0  0
  9 10  1  0  0  0  0
 10 11  2  0  0  0  0
 11 12  1  0  0  0  0
 12  8  1  0  0  0  0
 10 13  1  0  0  0  0
 11 14  1  0  0  0  0
 14 15  1  0  0  0  0
 44 16  1  0  0  0  0
 15 17  1  0  0  0  0
 17 18  2  0  0  0  0
 18 19  1  0  0  0  0
 19 20  2  0  0  0  0
 20 21  1  0  0  0  0
 21 22  2  0  0  0  0
 22 17  1  0  0  0  0
 20 23  1  0  0  0  0
 23 24  1  0  0  0  0
 23 25  2  0  0  0  0
 19 26  1  0  0  0  0
 26 27  1  0  0  0  0
 13 28  1  0  0  0  0
 28 29  1  0  0  0  0
 28 33  1  0  0  0  0
 29 30  1  0  0  0  0
 30 31  1  0  0  0  0
 31 32  1  0  0  0  0
 32 33  1  0  0  0  0
 31 34  1  0  0  0  0
 34 35  1  0  0  0  0
 34 36  1  0  0  0  0
 34 37  1  0  0  0  0
  7 38  1  0  0  0  0
  7 39  1  0  0  0  0
  7 40  1  0  0  0  0
 25 41  1  0  0  0  0
 24 42  1  0  0  0  0
 42 43  2  0  0  0  0
 42 41  1  0  0  0  0
 14 44  1  6  0  0  0
M  END
>  <ID_NEW>
CPDPP3163

>  <pEC50>
7.608431091331446

$$$$

  SciTegic12180813042D

 39 43  0  0  0  0            999 V2000
    1.2635   -0.3465    0.0000 C   0  0
    1.6988   -1.1229    0.0000 C   0  0
    2.5914   -1.1307    0.0000 C   0  0
    2.6007    0.4145    0.0000 C   0  0
    1.7137    0.4187    0.0000 C   0  0
    3.0339   -0.3625    0.0000 C   0  0
    3.0490    1.1751    0.0000 Cl  0  0
    3.9173   -0.3688    0.0000 C   0  0
    4.4308   -1.0834    0.0000 N   0  0
    5.2729   -0.8164    0.0000 O   0  0
    5.2792    0.0671    0.0000 C   0  0
    4.4409    0.3459    0.0000 N   0  0
    5.9975    0.5813    0.0000 O   0  0
    0.5889   -0.4611    0.0000 O   0  0
   -4.1589   -0.2760    0.0000 C   0  0
   -4.5828   -0.9865    0.0000 C   0  0
   -4.1795   -1.7068    0.0000 C   0  0
   -3.3524   -1.7177    0.0000 C   0  0
   -2.9304   -1.0024    0.0000 C   0  0
   -3.3361   -0.2851    0.0000 C   0  0
   -2.1054   -1.0100    0.0000 C   0  0
   -1.6296   -1.6796    0.0000 N   0  0
   -0.8418   -1.4318    0.0000 C   0  0
   -0.8355   -0.6056    0.0000 C   0  0
   -1.6195   -0.3457    0.0000 S   0  0
   -0.1785   -1.9223    0.0000 C   0  0
   -0.1631   -0.1220    0.0000 C   0  0
   -5.4077   -0.9752    0.0000 C   0  0
   -5.8301   -1.6839    0.0000 F   0  0
   -5.8103   -0.2551    0.0000 F   0  0
   -4.8325   -1.5665    0.0000 F   0  0
   -0.2040    2.8806    0.0000 C   0  0
   -0.4910    2.1046    0.0000 C   0  0
    0.0372    1.4702    0.0000 C   0  0
    0.8523    1.6106    0.0000 C   0  0
    1.1366    2.3910    0.0000 C   0  0
    0.6066    3.0221    0.0000 C   0  0
   -0.2480    0.6961    0.0000 C   0  0
    0.8893    3.7971    0.0000 F   0  0
  1  2  2  0
  4  5  2  0
  5  1  1  0
  2  3  1  0
  3  6  2  0
  4  6  1  0
  4  7  1  0
  6  8  1  0
 14  1  1  0
  8  9  2  0
  9 10  1  0
 10 11  1  0
 11 12  1  0
 12  8  1  0
 11 13  2  0
 17 18  2  0
 19 21  1  0
 22 23  1  0
 18 19  1  0
 16 17  1  0
 19 20  2  0
 21 22  2  0
 23 24  2  0
 24 25  1  0
 25 21  1  0
 20 15  1  0
 24 27  1  0
 15 16  2  0
 23 26  1  0
 16 28  1  0
 28 29  1  0
 28 30  1  0
 28 31  1  0
 27 14  1  0
 27 38  1  0
 32 33  2  0
 33 34  1  0
 34 35  2  0
 35 36  1  0
 36 37  2  0
 37 32  1  0
 34 38  1  0
 37 39  1  0
M  END
>  <ID_NEW>
CPDPP3164

>  <pEC50>
7.605567772036611

$$$$

  SciTegic12180813042D

 33 37  0  0  0  0            999 V2000
    6.7054   -4.6079    0.0000 O   0  0
    7.7090   -4.6318    0.0000 C   0  0
    8.1848   -5.5140    0.0000 C   0  0
    9.1891   -5.5391    0.0000 C   0  0
    9.7132   -4.6822    0.0000 C   0  0
    9.2277   -3.7981    0.0000 C   0  0
    8.2197   -3.7772    0.0000 C   0  0
   10.7174   -4.7056    0.0000 C   0  0
    9.7504   -2.9354    0.0000 Cl  0  0
   11.2885   -5.5280    0.0000 N   0  0
   12.2508   -5.2400    0.0000 O   0  0
   12.2742   -4.2357    0.0000 C   0  0
   11.3263   -3.9033    0.0000 N   0  0
   13.1004   -3.6643    0.0000 O   0  0
    4.9871   -1.9419    0.0000 C   0  0
    4.6602   -2.8856    0.0000 C   0  0
    5.2256   -3.7079    0.0000 C   0  0
    6.2253   -3.7307    0.0000 C   0  0
    2.8547   -4.7418    0.0000 C   0  0
    3.6824   -4.1726    0.0000 C   0  0
    3.7013   -3.1729    0.0000 N   0  0
    4.6221   -4.5033    0.0000 O   0  0
    1.9487   -4.3054    0.0000 C   0  0
    1.1215   -4.8737    0.0000 C   0  0
    1.2001   -5.8762    0.0000 C   0  0
    2.1130   -6.3078    0.0000 C   0  0
    2.9364   -5.7368    0.0000 C   0  0
    0.3723   -6.4471    0.0000 C   0  0
   -0.5336   -6.0119    0.0000 C   0  0
   -1.3592   -6.5784    0.0000 C   0  0
   -1.2838   -7.5816    0.0000 C   0  0
   -0.3755   -8.0157    0.0000 C   0  0
    0.4575   -7.4466    0.0000 C   0  0
  3  4  1  0
  4  5  2  0
  5  6  1  0
  6  7  2  0
  7  2  1  0
  5  8  1  0
  6  9  1  0
  8 10  2  0
 10 11  1  0
 11 12  1  0
 12 13  1  0
 13  8  1  0
 12 14  2  0
  1  2  1  0
  2  3  2  0
 15 16  1  0
 17 18  1  0
 20 21  2  0
 20 22  1  0
 19 20  1  0
 16 21  1  0
 17 22  1  0
 16 17  2  0
 18  1  1  0
 19 23  2  0
 23 24  1  0
 24 25  2  0
 25 26  1  0
 26 27  2  0
 27 19  1  0
 25 28  1  0
 28 29  1  0
 28 33  1  0
 29 30  1  0
 30 31  1  0
 31 32  1  0
 32 33  1  0
M  END
>  <ID_NEW>
CPDPP3165

>  <pEC50>
7.592633513351449

$$$$

  -MTS-   10172316532D 0   0.00000     0.00000     0

 39 42  0  0  0  0  0  0  0  0999 V2000
    1.2950   -4.7880    0.0000 C   0  0  0  0  0  0  0  0  0  0  0  0
    1.2860   -4.0670    0.0000 C   0  0  0  0  0  0  0  0  0  0  0  0
    1.9240   -5.1400    0.0000 C   0  0  0  0  0  0  0  0  0  0  0  0
    1.9040   -3.6970    0.0000 C   0  0  0  0  0  0  0  0  0  0  0  0
    2.5520   -4.7730    0.0000 C   0  0  0  0  0  0  0  0  0  0  0  0
    2.5340   -4.0490    0.0000 C   0  0  0  0  0  0  0  0  0  0  0  0
    1.8960   -2.9700    0.0000 O   0  0  0  0  0  0  0  0  0  0  0  0
    3.1630   -3.6840    0.0000 C   0  0  0  0  0  0  0  0  0  0  0  0
    3.1630   -2.9790    0.0000 O   0  0  0  0  0  0  0  0  0  0  0  0
    0.6820   -5.1530    0.0000 C   0  0  0  0  0  0  0  0  0  0  0  0
    1.2710   -2.6140    0.0000 C   0  0  0  0  0  0  0  0  0  0  0  0
    1.2590   -1.8990    0.0000 C   0  0  0  0  0  0  0  0  0  0  0  0
    0.1180   -5.4920    0.0000 F   0  0  0  0  0  0  0  0  0  0  0  0
    0.5700   -5.9060    0.0000 F   0  0  0  0  0  0  0  0  0  0  0  0
   -0.0290   -4.9050    0.0000 F   0  0  0  0  0  0  0  0  0  0  0  0
    8.3990   -2.9260    0.0000 N   0  0  0  0  0  0  0  0  0  0  0  0
    9.1120   -3.3440    0.0000 C   0  0  0  0  0  0  0  0  0  0  0  0
    9.2840   -4.1580    0.0000 N   0  0  0  0  0  0  0  0  0  0  0  0
   10.1040   -4.2470    0.0000 N   0  0  0  0  0  0  0  0  0  0  0  0
   10.4470   -3.5010    0.0000 C   0  0  0  0  0  0  0  0  0  0  0  0
    9.8340   -2.9370    0.0000 S   0  0  0  0  0  0  0  0  0  0  0  0
   11.2620   -3.3360    0.0000 C   0  0  0  0  0  0  0  0  0  0  0  0
   11.7990   -3.9590    0.0000 C   0  0  0  0  0  0  0  0  0  0  0  0
   11.5320   -2.5650    0.0000 C   0  0  0  0  0  0  0  0  0  0  0  0
    7.7150   -3.3850    0.0000 S   0  0  0  0  0  0  0  0  0  0  0  0
    7.2520   -2.6930    0.0000 O   0  0  0  0  0  0  0  0  0  0  0  0
    8.1790   -4.0760    0.0000 O   0  0  0  0  0  0  0  0  0  0  0  0
    7.0250   -3.8520    0.0000 C   0  0  0  0  0  0  0  0  0  0  0  0
    5.5920   -3.8580    0.0000 C   0  0  0  0  0  0  0  0  0  0  0  0
    5.5920   -4.6740    0.0000 C   0  0  0  0  0  0  0  0  0  0  0  0
    6.3070   -3.4340    0.0000 C   0  0  0  0  0  0  0  0  0  0  0  0
    6.3090   -5.0950    0.0000 C   0  0  0  0  0  0  0  0  0  0  0  0
    7.0330   -4.6680    0.0000 C   0  0  0  0  0  0  0  0  0  0  0  0
    4.8760   -5.0850    0.0000 C   0  0  1  0  0  0  0  0  0  0  0  0
    4.1190   -4.7470    0.0000 C   0  0  1  0  0  0  0  0  0  0  0  0
    3.5650   -5.3580    0.0000 C   0  0  0  0  0  0  0  0  0  0  0  0
    3.9750   -6.0740    0.0000 C   0  0  0  0  0  0  0  0  0  0  0  0
    4.7830   -5.9050    0.0000 C   0  0  0  0  0  0  0  0  0  0  0  0
    3.9490   -3.9390    0.0000 N   0  0  0  0  0  0  0  0  0  0  0  0
 10 15  1  0  0  0  0
  8  9  2  0  0  0  0
  5  6  1  0  0  0  0
  1 10  1  0  0  0  0
  1  2  2  0  0  0  0
  1  3  1  0  0  0  0
  2  4  1  0  0  0  0
  3  5  2  0  0  0  0
  4  6  2  0  0  0  0
  4  7  1  0  0  0  0
  6  8  1  0  0  0  0
  7 11  1  0  0  0  0
 11 12  1  0  0  0  0
 10 13  1  0  0  0  0
 10 14  1  0  0  0  0
 22 23  1  0  0  0  0
 22 24  1  0  0  0  0
 16 17  1  0  0  0  0
 17 18  2  0  0  0  0
 18 19  1  0  0  0  0
 16 25  1  0  0  0  0
 25 26  2  0  0  0  0
 25 27  2  0  0  0  0
 25 28  1  0  0  0  0
 28 33  1  0  0  0  0
 29 30  2  0  0  0  0
 29 31  1  0  0  0  0
 30 32  1  0  0  0  0
 31 28  2  0  0  0  0
 32 33  2  0  0  0  0
 34 30  1  6  0  0  0
 34 35  1  0  0  0  0
 35 36  1  0  0  0  0
 36 37  1  0  0  0  0
 37 38  1  0  0  0  0
 38 34  1  0  0  0  0
 35 39  1  1  0  0  0
 19 20  2  0  0  0  0
 20 21  1  0  0  0  0
 21 17  1  0  0  0  0
 20 22  1  0  0  0  0
 39  8  1  0  0  0  0
V   34 M1
V   35 M1
M  END
>  <ID_NEW>
CPDPP3166

>  <pEC50>
7.584613989310669

$$$$

  SciTegic12180813542D

 35 39  0  0  0  0            999 V2000
   -4.2988    2.4750    0.0000 C   0  0
   -4.3000    1.5893    0.0000 C   0  0
   -3.5351    1.1473    0.0000 C   0  0
   -2.7687    1.5897    0.0000 C   0  0
   -2.7716    2.4787    0.0000 C   0  0
   -3.5369    2.9169    0.0000 C   0  0
   -5.0634    2.9165    0.0000 C   0  0
   -5.0636    3.7959    0.0000 F   0  0
   -5.8319    2.4705    0.0000 F   0  0
   -4.4426    3.5457    0.0000 F   0  0
    0.3708   -0.0168    0.0000 N   0  0
   -2.0056    1.1458    0.0000 C   0  0
   -2.0068    0.2559    0.0000 C   0  0
   -1.2337   -0.1903    0.0000 N   0  0
   -1.2355    1.5877    0.0000 C   0  0
   -0.4701    1.1452    0.0000 C   0  0
   -0.4694    0.2563    0.0000 C   0  0
    0.8916    0.6936    0.0000 C   0  0
    0.3727    1.4177    0.0000 C   0  0
    0.7357   -1.7502    0.0000 C   0  0
    0.0717   -2.3417    0.0000 C   0  0
    0.2519   -3.2125    0.0000 C   0  0
    1.0955   -3.4928    0.0000 C   0  0
    1.7593   -2.8921    0.0000 C   0  0
    1.5760   -2.0276    0.0000 C   0  0
    2.6020   -3.1686    0.0000 Cl  0  0
    0.5553   -0.8842    0.0000 S   0  0
    1.4213   -0.7032    0.0000 O   0  0
   -0.3101   -1.0676    0.0000 O   0  0
    1.2785   -4.3627    0.0000 C   0  0
    0.6816   -5.0158    0.0000 N   0  0
    1.1245   -5.7866    0.0000 O   0  0
    1.9944   -5.6036    0.0000 C   0  0
    2.0891   -4.7197    0.0000 N   0  0
    2.6539   -6.1997    0.0000 O   0  0
  1  2  2  0
  2  3  1  0
  3  4  2  0
  4  5  1  0
  5  6  2  0
  6  1  1  0
  1  7  1  0
  7  8  1  0
  7  9  1  0
  7 10  1  0
 14 17  2  0
 12 13  2  0
 16 15  2  0
 17 11  1  0
 11 18  1  0
 18 19  1  0
 19 16  1  0
 15 12  1  0
 16 17  1  0
 13 14  1  0
 12  4  1  0
 20 21  2  0
 21 22  1  0
 22 23  2  0
 23 24  1  0
 24 25  2  0
 25 20  1  0
 24 26  1  0
 20 27  1  0
 27 11  1  0
 27 28  2  0
 27 29  2  0
 23 30  1  0
 30 31  2  0
 31 32  1  0
 32 33  1  0
 33 34  1  0
 34 30  1  0
 33 35  2  0
M  END
>  <ID_NEW>
CPDPP3167

>  <pEC50>
7.567097115034291

$$$$

  SciTegic12180813052D

 34 37  0  0  0  0            999 V2000
   -5.0874   -1.9373    0.0000 O   0  0
   -4.5474   -1.6225    0.0000 C   0  0
   -4.5465   -0.9952    0.0000 C   0  0
   -4.0108   -0.6804    0.0000 C   0  0
   -4.0098   -0.0531    0.0000 C   0  0
   -3.4739    0.2594    0.0000 C   0  0
   -2.8930    0.0030    0.0000 C   0  0
   -4.1222    2.0044    0.0000 C   0  0
   -4.3816    2.5770    0.0000 C   0  0
   -5.0001    2.6392    0.0000 C   0  0
   -5.3712    2.1275    0.0000 C   0  0
   -5.1116    1.5622    0.0000 C   0  0
   -4.4853    1.4964    0.0000 C   0  0
   -5.2535    3.2184    0.0000 C   0  0
   -5.5027    3.7968    0.0000 F   0  0
   -5.8326    2.9691    0.0000 F   0  0
   -4.6741    3.4668    0.0000 F   0  0
   -4.2243    0.9297    0.0000 C   0  0
   -4.4753    0.3684    0.0000 N   0  0
   -3.6078    0.8743    0.0000 S   0  0
   -2.8260   -0.6280    0.0000 O   0  0
   -2.2585   -0.8888    0.0000 C   0  0
   -2.1973   -1.5142    0.0000 C   0  0
   -1.6303   -1.7750    0.0000 C   0  0
   -1.1168   -1.4059    0.0000 C   0  0
   -1.1823   -0.7856    0.0000 C   0  0
   -1.7535   -0.5278    0.0000 C   0  0
   -0.5530   -1.6700    0.0000 C   0  0
   -0.4938   -2.2912    0.0000 N   0  0
    0.0233   -1.4218    0.0000 N   0  0
    0.4305   -1.8985    0.0000 C   0  0
    1.0569   -1.8461    0.0000 O   0  0
    0.1167   -2.4250    0.0000 O   0  0
   -0.6758   -0.4194    0.0000 F   0  0
  1  2  1  0
  2  3  1  0
  3  4  1  0
  4  5  1  0
  5  6  2  0
  6  7  1  0
  8  9  2  0
  9 10  1  0
 10 11  2  0
 11 12  1  0
 12 13  2  0
 13  8  1  0
 10 14  1  0
 14 15  1  0
 14 16  1  0
 14 17  1  0
 13 18  1  0
 18 19  2  0
 18 20  1  0
  6 20  1  0
  5 19  1  0
  7 21  1  0
 21 22  1  0
 22 23  2  0
 23 24  1  0
 24 25  2  0
 25 26  1  0
 26 27  2  0
 27 22  1  0
 25 28  1  0
 28 29  2  0
 28 30  1  0
 30 31  1  0
 31 32  2  0
 31 33  1  0
 33 29  1  0
 26 34  1  0
M  END
>  <ID_NEW>
CPDPP3168

>  <pEC50>
7.552738238428689

$$$$

  SciTegic12180813082D

 40 44  0  0  0  0            999 V2000
    3.9031    3.4810    0.0000 N   0  0
    0.9415    2.6253    0.0000 C   0  0
    0.9415    1.7713    0.0000 C   0  0
    0.1330    2.8894    0.0000 C   0  0
    1.6774    3.0531    0.0000 C   0  0
    0.1294    1.5108    0.0000 C   0  0
    1.6753    1.3470    0.0000 C   0  0
   -0.3635    2.1959    0.0000 C   0  0
    2.4175    2.6265    0.0000 C   0  0
    2.4201    1.7734    0.0000 C   0  0
    3.1619    3.0534    0.0000 S   0  0
    3.5901    2.3050    0.0000 O   0  0
    2.7371    3.7968    0.0000 O   0  0
    4.6433    3.0572    0.0000 C   0  0
    4.7319    2.2138    0.0000 S   0  0
    5.5684    2.0353    0.0000 C   0  0
    5.9922    2.7756    0.0000 N   0  0
    5.4182    3.4084    0.0000 N   0  0
   -1.2164    2.1950    0.0000 N   0  0
   -1.6437    2.9331    0.0000 C   0  0
   -2.4965    2.9321    0.0000 C   0  0
   -2.9218    3.6711    0.0000 C   0  0
   -3.7739    3.6705    0.0000 C   0  0
   -4.2003    2.9309    0.0000 C   0  0
   -3.7684    2.1903    0.0000 C   0  0
   -2.9178    2.1946    0.0000 C   0  0
   -1.2181    3.6721    0.0000 O   0  0
   -2.4889    1.4599    0.0000 O   0  0
   -2.9107    0.7212    0.0000 C   0  0
   -3.7614    0.7171    0.0000 C   0  0
   -5.0546    2.9287    0.0000 C   0  0
   -5.8314    2.9267    0.0000 F   0  0
   -5.6200    3.6189    0.0000 F   0  0
   -5.6166    2.2357    0.0000 F   0  0
    5.9039    1.2845    0.0000 C   0  0
    5.4178    0.6241    0.0000 C   0  0
    5.7500   -0.1242    0.0000 C   0  0
    6.5679   -0.2133    0.0000 C   0  0
    7.0525    0.4522    0.0000 C   0  0
    6.7193    1.2069    0.0000 C   0  0
  2  3  2  0
  2  4  1  0
  2  5  1  0
  3  6  1  0
  3  7  1  0
  4  8  1  0
  5  9  2  0
  7 10  2  0
  6  8  1  0
  9 10  1  0
 11  1  1  0
 11 12  2  0
 11 13  2  0
  9 11  1  0
  1 14  1  0
 14 15  1  0
 15 16  1  0
 16 17  2  0
 17 18  1  0
 18 14  2  0
  8 19  1  0
 19 20  1  0
 20 21  1  0
 21 22  2  0
 22 23  1  0
 23 24  2  0
 24 25  1  0
 25 26  2  0
 26 21  1  0
 20 27  2  0
 26 28  1  0
 28 29  1  0
 29 30  1  0
 31 32  1  0
 31 33  1  0
 31 34  1  0
 24 31  1  0
 16 35  1  0
 35 36  1  0
 35 40  1  0
 36 37  1  0
 37 38  1  0
 38 39  1  0
 39 40  1  0
M  END
>  <ID_NEW>
CPDPP3169

>  <pEC50>
7.5423942885073485

$$$$

  SciTegic12180813092D

 36 39  0  0  0  0            999 V2000
   -4.4014    1.6584    0.0000 C   0  0
   -4.4026    0.8310    0.0000 C   0  0
   -3.6878    0.4181    0.0000 N   0  0
   -2.9713    0.8315    0.0000 C   0  0
   -2.9742    1.6620    0.0000 C   0  0
   -3.6896    2.0711    0.0000 C   0  0
   -5.1174    0.4191    0.0000 C   0  0
   -5.8315    0.8321    0.0000 F   0  0
   -5.1180   -0.4059    0.0000 F   0  0
   -5.3303    1.2161    0.0000 F   0  0
   -2.2613    2.0772    0.0000 C   0  0
   -1.5067    1.7470    0.0000 S   0  0
   -0.9570    2.3622    0.0000 C   0  0
   -1.3722    3.0752    0.0000 C   0  0
   -2.1785    2.9005    0.0000 N   0  0
   -1.0396    3.8301    0.0000 C   0  0
   -0.1362    2.2791    0.0000 C   0  0
    0.2031    1.5305    0.0000 O   0  0
    0.3462    2.9484    0.0000 C   0  0
    1.1670    2.8653    0.0000 F   0  0
    0.0078    3.7008    0.0000 F   0  0
    0.7542    3.6667    0.0000 F   0  0
    0.6996    0.8716    0.0000 C   0  0
    1.5185    0.9721    0.0000 C   0  0
    2.0102    0.3119    0.0000 C   0  0
    2.8284    0.4120    0.0000 C   0  0
    3.1515    1.1721    0.0000 C   0  0
    2.6503    1.8328    0.0000 C   0  0
    1.8339    1.7293    0.0000 C   0  0
    3.9702    1.2737    0.0000 C   0  0
    3.3245   -0.2471    0.0000 Cl  0  0
    4.5320    0.6749    0.0000 N   0  0
    5.2792    1.0245    0.0000 O   0  0
    5.1776    1.8433    0.0000 C   0  0
    4.3676    1.9995    0.0000 N   0  0
    5.7802    2.4068    0.0000 O   0  0
  7  8  1  0
  7  9  1  0
  4  5  1  0
  7 10  1  0
  2  3  1  0
  5 11  1  0
  5  6  2  0
  6  1  1  0
 11 12  1  0
 12 13  1  0
 13 14  2  0
 14 15  1  0
 15 11  2  0
 14 16  1  0
 13 17  1  0
 17 18  1  0
 17 19  1  0
  1  2  2  0
 19 20  1  0
  2  7  1  0
 19 21  1  0
  3  4  2  0
 19 22  1  0
 18 23  1  0
 23 24  1  0
 24 25  2  0
 25 26  1  0
 26 27  2  0
 27 28  1  0
 28 29  2  0
 29 24  1  0
 27 30  1  0
 26 31  1  0
 30 32  2  0
 32 33  1  0
 33 34  1  0
 34 35  1  0
 35 30  1  0
 34 36  2  0
M  END
>  <ID_NEW>
CPDPP3170

>  <pEC50>
7.5349902698359

$$$$

  -MTS-   10172316532D 0   0.00000     0.00000     0

 45 49  0  0  0  0  0  0  0  0999 V2000
   -3.4020   -2.0380    0.0000 C   0  0  0  0  0  0  0  0  0  0  0  0
   -3.2900   -1.3340    0.0000 C   0  0  2  0  0  0  0  0  0  0  0  0
   -3.8410   -0.8870    0.0000 C   0  0  0  0  0  0  0  0  0  0  0  0
   -4.5070   -1.1400    0.0000 C   0  0  0  0  0  0  0  0  0  0  0  0
   -4.6190   -1.8450    0.0000 C   0  0  1  0  0  0  0  0  0  0  0  0
   -4.0650   -2.2960    0.0000 C   0  0  0  0  0  0  0  0  0  0  0  0
   -5.2810   -2.0970    0.0000 C   0  0  0  0  0  0  0  0  0  0  0  0
   -5.8310   -1.6510    0.0000 F   0  0  0  0  0  0  0  0  0  0  0  0
   -5.3930   -2.7970    0.0000 F   0  0  0  0  0  0  0  0  0  0  0  0
   -5.3540   -1.3930    0.0000 F   0  0  0  0  0  0  0  0  0  0  0  0
   -2.6280   -1.0800    0.0000 C   0  0  0  0  0  0  0  0  0  0  0  0
   -2.0340   -1.4690    0.0000 N   0  0  0  0  0  0  0  0  0  0  0  0
   -1.4840   -1.0230    0.0000 C   0  0  0  0  0  0  0  0  0  0  0  0
   -1.7370   -0.3620    0.0000 C   0  0  0  0  0  0  0  0  0  0  0  0
   -2.4440   -0.3990    0.0000 S   0  0  0  0  0  0  0  0  0  0  0  0
   -0.7990   -1.2070    0.0000 C   0  0  0  0  0  0  0  0  0  0  0  0
   -0.6170   -1.8910    0.0000 N   0  0  0  0  0  0  0  0  0  0  0  0
   -1.1210   -2.3940    0.0000 C   0  0  0  0  0  0  0  0  0  0  0  0
   -0.9410   -3.0760    0.0000 C   0  0  0  0  0  0  0  0  0  0  0  0
   -0.2570   -3.2630    0.0000 C   0  0  0  0  0  0  0  0  0  0  0  0
    0.2460   -2.7630    0.0000 C   0  0  0  0  0  0  0  0  0  0  0  0
    0.0650   -2.0760    0.0000 C   0  0  0  0  0  0  0  0  0  0  0  0
   -0.0770   -3.9480    0.0000 C   0  0  0  0  0  0  0  0  0  0  0  0
   -0.5800   -4.4470    0.0000 F   0  0  0  0  0  0  0  0  0  0  0  0
    0.6060   -4.1340    0.0000 F   0  0  0  0  0  0  0  0  0  0  0  0
   -0.7850   -3.9450    0.0000 F   0  0  0  0  0  0  0  0  0  0  0  0
   -1.3510    0.2320    0.0000 C   0  0  0  0  0  0  0  0  0  0  0  0
   -0.6440    0.1940    0.0000 O   0  0  0  0  0  0  0  0  0  0  0  0
   -1.6720    0.8630    0.0000 C   0  0  0  0  0  0  0  0  0  0  0  0
   -2.3800    0.9010    0.0000 C   0  0  0  0  0  0  0  0  0  0  0  0
   -0.2590    0.7860    0.0000 C   0  0  0  0  0  0  0  0  0  0  0  0
    0.4500    0.7510    0.0000 C   0  0  0  0  0  0  0  0  0  0  0  0
    0.8330    1.3460    0.0000 C   0  0  0  0  0  0  0  0  0  0  0  0
    0.5090    1.9770    0.0000 C   0  0  0  0  0  0  0  0  0  0  0  0
   -0.2020    2.0090    0.0000 C   0  0  0  0  0  0  0  0  0  0  0  0
   -0.5830    1.4140    0.0000 C   0  0  0  0  0  0  0  0  0  0  0  0
    1.5410    1.3110    0.0000 O   0  0  0  0  0  0  0  0  0  0  0  0
    1.8650    0.6810    0.0000 C   0  0  0  0  0  0  0  0  0  0  0  0
    0.8920    2.5730    0.0000 C   0  0  0  0  0  0  0  0  0  0  0  0
    1.6000    2.5400    0.0000 N   0  0  0  0  0  0  0  0  0  0  0  0
    0.5670    3.2030    0.0000 N   0  0  0  0  0  0  0  0  0  0  0  0
    0.9500    3.7990    0.0000 O   0  0  0  0  0  0  0  0  0  0  0  0
    1.8940    3.1910    0.0000 C   0  0  0  0  0  0  0  0  0  0  0  0
    2.5990    3.2610    0.0000 O   0  0  0  0  0  0  0  0  0  0  0  0
   -1.2900    1.4460    0.0000 F   0  0  0  0  0  0  0  0  0  0  0  0
 20 21  1  0  0  0  0
 21 22  1  0  0  0  0
  7  8  1  0  0  0  0
 20 23  1  0  0  0  0
 23 24  1  0  0  0  0
  7  9  1  0  0  0  0
 23 25  1  0  0  0  0
 23 26  1  0  0  0  0
  7 10  1  0  0  0  0
 14 27  1  0  0  0  0
 27 28  1  0  0  0  0
  2 11  1  6  0  0  0
 27 29  1  0  0  0  0
 11 12  2  0  0  0  0
 29 30  1  0  0  0  0
 28 31  1  0  0  0  0
 31 32  2  0  0  0  0
 32 33  1  0  0  0  0
  1  6  1  0  0  0  0
 33 34  2  0  0  0  0
 12 13  1  0  0  0  0
 34 35  1  0  0  0  0
 13 14  2  0  0  0  0
 35 36  2  0  0  0  0
 36 31  1  0  0  0  0
 14 15  1  0  0  0  0
 15 11  1  0  0  0  0
 33 37  1  0  0  0  0
  2  3  1  0  0  0  0
 37 38  1  0  0  0  0
 13 16  1  0  0  0  0
  3  4  1  0  0  0  0
 16 17  1  0  0  0  0
 34 39  1  0  0  0  0
 17 18  1  0  0  0  0
 39 40  1  0  0  0  0
  5  4  1  0  0  0  0
 39 41  2  0  0  0  0
  5  6  1  0  0  0  0
 41 42  1  0  0  0  0
  5  7  1  1  0  0  0
  1  2  1  0  0  0  0
 17 22  1  0  0  0  0
 18 19  1  0  0  0  0
 19 20  1  0  0  0  0
 40 43  1  0  0  0  0
 43 44  2  0  0  0  0
 42 43  1  0  0  0  0
 36 45  1  0  0  0  0
V    2 M1
V    5 M1
M  END
>  <ID_NEW>
CPDPP3171

>  <pEC50>
7.530798221972394

$$$$

  SciTegic12180813062D

 34 37  0  0  0  0            999 V2000
    1.7116   -0.8035    0.0000 C   0  0
    2.4868   -0.5150    0.0000 S   0  0
    1.7456   -1.6260    0.0000 N   0  0
    2.5441   -1.8448    0.0000 N   0  0
    3.0003   -1.1553    0.0000 C   0  0
    3.8280   -1.1192    0.0000 C   0  0
    4.2072   -0.3854    0.0000 C   0  0
    4.2736   -1.8103    0.0000 C   0  0
    1.0735   -0.2818    0.0000 N   0  0
    0.0132    0.2018    0.0000 C   0  0
    0.3031   -0.5689    0.0000 S   0  0
    0.5909   -1.3456    0.0000 O   0  0
   -0.4694   -0.8620    0.0000 O   0  0
   -0.8016    0.3345    0.0000 C   0  0
    0.5359    0.8363    0.0000 C   0  0
    0.2428    1.6131    0.0000 C   0  0
   -0.5670    1.7522    0.0000 C   0  0
   -1.0962    1.1135    0.0000 C   0  0
   -0.8597    2.5244    0.0000 C   0  0
   -0.1050    2.1879    0.0000 C   0  0
    0.5543    2.6607    0.0000 C   0  0
    0.4774    3.4906    0.0000 C   0  0
   -0.2704    3.8306    0.0000 C   0  0
   -0.9377    3.3455    0.0000 C   0  0
   -1.6398    2.7799    0.0000 C   0  0
   -2.2538    2.2289    0.0000 N   0  0
   -3.0872    2.2257    0.0000 C   0  0
   -3.5088    2.9392    0.0000 N   0  0
   -4.3368    2.9342    0.0000 C   0  0
   -4.7475    2.2206    0.0000 C   0  0
   -4.3331    1.5050    0.0000 C   0  0
   -3.5014    1.5095    0.0000 C   0  0
   -3.0716    0.7813    0.0000 Cl  0  0
   -5.5758    2.2106    0.0000 Cl  0  0
 25 26  1  0
 10 11  1  0
 11 12  2  0
 11  9  1  0
 11 13  2  0
 14 10  2  0
 10 15  1  0
 15 16  2  0
 16 17  1  0
 17 18  2  0
 18 14  1  0
 19 20  1  0
 19 24  1  0
 20 21  1  0
 21 22  1  0
 22 23  1  0
  2  5  1  0
  4  3  1  0
  3  1  2  0
  4  5  2  0
  5  6  1  0
  6  7  1  0
  6  8  1  0
  9  1  1  0
  1  2  1  0
 23 24  1  0
 17 19  1  0
 19 25  1  0
 26 27  1  0
 27 28  2  0
 28 29  1  0
 29 30  2  0
 30 31  1  0
 31 32  2  0
 32 27  1  0
 32 33  1  0
 30 34  1  0
M  END
>  <ID_NEW>
CPDPP3172

>  <pEC50>
7.5230677116291576

$$$$

  -MTS-   10172316532D 0   0.00000     0.00000     0

 38 42  0  0  1  0  0  0  0  0999 V2000
    7.1570   -1.8960    0.0000 C   0  0  0  0  0  0  0  0  0  0  0  0
    7.6460   -2.6320    0.0000 N   0  0  0  0  0  0  0  0  0  0  0  0
    8.5010   -2.3940    0.0000 O   0  0  0  0  0  0  0  0  0  0  0  0
    8.5410   -1.5050    0.0000 C   0  0  0  0  0  0  0  0  0  0  0  0
    7.7090   -1.1990    0.0000 N   0  0  0  0  0  0  0  0  0  0  0  0
    9.2770   -1.0170    0.0000 O   0  0  0  0  0  0  0  0  0  0  0  0
    0.5090   -2.5780    0.0000 C   0  0  0  0  0  0  0  0  0  0  0  0
    1.3950   -2.4720    0.0000 S   0  0  0  0  0  0  0  0  0  0  0  0
    1.5630   -1.6010    0.0000 C   0  0  0  0  0  0  0  0  0  0  0  0
    0.7790   -1.1710    0.0000 C   0  0  0  0  0  0  0  0  0  0  0  0
    0.1330   -1.7750    0.0000 N   0  0  0  0  0  0  0  0  0  0  0  0
    0.6710   -0.2930    0.0000 C   0  0  0  0  0  0  0  0  0  0  0  0
    2.3660   -1.2220    0.0000 C   0  0  1  0  0  0  0  0  0  0  0  0
    3.0920   -1.7280    0.0000 O   0  0  0  0  0  0  0  0  0  0  0  0
    2.4480   -0.3450    0.0000 C   0  0  0  0  0  0  0  0  0  0  0  0
    3.2510    0.0330    0.0000 F   0  0  0  0  0  0  0  0  0  0  0  0
    1.7220    0.1600    0.0000 F   0  0  0  0  0  0  0  0  0  0  0  0
    3.2790   -0.6470    0.0000 F   0  0  0  0  0  0  0  0  0  0  0  0
    0.0750   -3.3560    0.0000 C   0  0  0  0  0  0  0  0  0  0  0  0
    5.7280   -1.3400    0.0000 C   0  0  0  0  0  0  0  0  0  0  0  0
    4.8460   -1.4700    0.0000 C   0  0  0  0  0  0  0  0  0  0  0  0
    4.5240   -2.2930    0.0000 C   0  0  0  0  0  0  0  0  0  0  0  0
    5.0810   -2.9880    0.0000 C   0  0  0  0  0  0  0  0  0  0  0  0
    5.9610   -2.8560    0.0000 C   0  0  0  0  0  0  0  0  0  0  0  0
    6.2840   -2.0300    0.0000 C   0  0  0  0  0  0  0  0  0  0  0  0
    3.6450   -2.4230    0.0000 C   0  0  0  0  0  0  0  0  0  0  0  0
    6.5150   -3.5460    0.0000 C   0  0  0  0  0  0  0  0  0  0  0  0
    6.6560   -4.4190    0.0000 C   0  0  0  0  0  0  0  0  0  0  0  0
    7.3460   -3.8660    0.0000 C   0  0  0  0  0  0  0  0  0  0  0  0
   -0.9050   -4.8610    0.0000 C   0  0  0  0  0  0  0  0  0  0  0  0
   -1.3320   -5.6350    0.0000 C   0  0  0  0  0  0  0  0  0  0  0  0
   -2.2200   -5.6490    0.0000 F   0  0  0  0  0  0  0  0  0  0  0  0
   -0.8720   -6.3930    0.0000 F   0  0  0  0  0  0  0  0  0  0  0  0
   -1.7720   -6.4090    0.0000 F   0  0  0  0  0  0  0  0  0  0  0  0
   -0.8190   -3.3130    0.0000 C   0  0  0  0  0  0  0  0  0  0  0  0
   -1.3120   -4.0600    0.0000 C   0  0  0  0  0  0  0  0  0  0  0  0
   -0.0230   -4.9050    0.0000 C   0  0  0  0  0  0  0  0  0  0  0  0
    0.4670   -4.1550    0.0000 C   0  0  0  0  0  0  0  0  0  0  0  0
  1  2  2  0  0  0  0
  2  3  1  0  0  0  0
  3  4  1  0  0  0  0
  4  5  1  0  0  0  0
  5  1  1  0  0  0  0
  4  6  2  0  0  0  0
 15 16  1  0  0  0  0
 15 17  1  0  0  0  0
 15 18  1  0  0  0  0
  7 19  1  0  0  0  0
  7  8  1  0  0  0  0
  8  9  1  0  0  0  0
  9 10  2  0  0  0  0
 10 11  1  0  0  0  0
 11  7  2  0  0  0  0
 10 12  1  0  0  0  0
  9 13  1  0  0  0  0
 13 14  1  0  0  0  0
 13 15  1  6  0  0  0
 20 21  2  0  0  0  0
 21 22  1  0  0  0  0
 22 23  2  0  0  0  0
 23 24  1  0  0  0  0
 24 25  2  0  0  0  0
 25 20  1  0  0  0  0
 25  1  1  0  0  0  0
 22 26  1  0  0  0  0
 26 14  1  0  0  0  0
 24 27  1  0  0  0  0
 28 27  1  0  0  0  0
 29 28  1  0  0  0  0
 27 29  1  0  0  0  0
 30 31  1  0  0  0  0
 31 32  1  0  0  0  0
 31 33  1  0  0  0  0
 31 34  1  0  0  0  0
 35 36  1  0  0  0  0
 35 19  2  0  0  0  0
 36 30  2  0  0  0  0
 30 37  1  0  0  0  0
 37 38  2  0  0  0  0
 38 19  1  0  0  0  0
M  END
>  <ID_NEW>
CPDPP3173

>  <pEC50>
7.521308909563126

$$$$

  SciTegic12180813042D

 39 42  0  0  0  0            999 V2000
   -4.0010   -3.4367    0.0000 C   0  0
   -4.7321   -3.4311    0.0000 C   0  0
   -5.1002   -4.0604    0.0000 C   0  0
   -4.7345   -4.6959    0.0000 C   0  0
   -4.0036   -4.6965    0.0000 C   0  0
   -3.6402   -4.0664    0.0000 C   0  0
   -5.1034   -5.3300    0.0000 C   0  0
   -5.8325   -5.3275    0.0000 F   0  0
   -4.7389   -5.9667    0.0000 F   0  0
   -5.6173   -4.8125    0.0000 F   0  0
   -3.6351   -2.8074    0.0000 C   0  0
   -2.9045   -2.7326    0.0000 N   0  0
   -2.7508   -2.0187    0.0000 C   0  0
   -3.3844   -1.6486    0.0000 C   0  0
   -3.9276   -2.1386    0.0000 S   0  0
   -2.0851   -1.7236    0.0000 C   0  0
   -3.4603   -0.9247    0.0000 C   0  0
   -2.8695   -0.4989    0.0000 O   0  0
   -1.4989   -2.1557    0.0000 C   0  0
   -0.8332   -1.8606    0.0000 C   0  0
   -0.2427   -2.2927    0.0000 C   0  0
   -2.9454    0.2291    0.0000 C   0  0
   -2.3469    0.6565    0.0000 C   0  0
   -2.4223    1.3836    0.0000 C   0  0
   -3.0898    1.6826    0.0000 C   0  0
   -3.6872    1.2509    0.0000 C   0  0
   -3.6117    0.5260    0.0000 C   0  0
   -1.8312    1.8091    0.0000 O   0  0
   -3.1629    2.4063    0.0000 C   0  0
   -2.6167    2.7292    0.0000 N   0  0
   -3.7299    2.6933    0.0000 N   0  0
   -2.6208    3.3625    0.0000 O   0  0
   -3.7375    3.3292    0.0000 C   0  0
   -4.2584    3.8312    0.0000 O   0  0
   -1.1672    1.5099    0.0000 C   0  0
   -0.5761    1.9353    0.0000 C   0  0
    0.0879    1.6361    0.0000 F   0  0
   -0.6490    2.6599    0.0000 F   0  0
   -0.3182    1.2542    0.0000 F   0  0
  2  3  1  0
  3  4  2  0
  4  5  1  0
  5  6  2  0
  6  1  1  0
  4  7  1  0
  7  8  1  0
  7  9  1  0
  7 10  1  0
  1 11  1  0
 11 12  2  0
 12 13  1  0
 13 14  2  0
 14 15  1  0
 15 11  1  0
 13 16  1  0
 14 17  1  0
 17 18  1  0
 16 19  1  0
 19 20  1  0
 20 21  1  0
 18 22  1  0
 22 23  2  0
 23 24  1  0
 24 25  2  0
 25 26  1  0
 26 27  2  0
 27 22  1  0
 24 28  1  0
 25 29  1  0
 29 30  2  0
 29 31  1  0
 30 32  1  0
 31 33  1  0
 33 32  1  0
 33 34  2  0
 28 35  1  0
 35 36  1  0
 36 37  1  0
 36 38  1  0
 36 39  1  0
  1  2  2  0
M  END
>  <ID_NEW>
CPDPP3174

>  <pEC50>
7.5121986946200865

$$$$

  SciTegic12180813032D

 41 45  0  0  0  0            999 V2000
   -3.7917    2.9625    0.0000 C   0  0
   -3.7917    2.3833    0.0000 C   0  0
   -3.2838    2.0917    0.0000 C   0  0
   -2.7801    2.3833    0.0000 N   0  0
   -2.7801    2.9625    0.0000 C   0  0
   -3.2838    3.2583    0.0000 C   0  0
   -4.7681    0.0417    0.0000 C   0  0
   -4.7693   -0.5732    0.0000 C   0  0
   -4.2378   -0.8777    0.0000 C   0  0
   -3.7047   -0.5727    0.0000 C   0  0
   -3.7075    0.0453    0.0000 C   0  0
   -4.2396    0.3503    0.0000 C   0  0
   -5.3049   -0.8768    0.0000 C   0  0
   -5.8315   -0.5720    0.0000 F   0  0
   -5.3055   -1.4934    0.0000 F   0  0
   -5.4594   -0.2839    0.0000 F   0  0
   -3.2106    0.4091    0.0000 C   0  0
   -2.6251    0.2227    0.0000 S   0  0
   -2.2649    0.7191    0.0000 C   0  0
   -2.6244    1.2160    0.0000 C   0  0
   -3.2092    1.0282    0.0000 N   0  0
   -2.4315    1.7963    0.0000 C   0  0
   -1.6482    0.7186    0.0000 C   0  0
   -1.3194    1.0497    0.0000 O   0  0
   -0.8386    1.0465    0.0000 C   0  0
   -0.5990    0.6310    0.0000 C   0  0
   -0.1188    0.6274    0.0000 C   0  0
    0.1251    1.0411    0.0000 C   0  0
   -0.1159    1.4636    0.0000 C   0  0
   -0.5992    1.4644    0.0000 C   0  0
    0.1181    0.2113    0.0000 F   0  0
    0.6066    1.0386    0.0000 C   0  0
    0.8864    0.6475    0.0000 N   0  0
    1.3460    0.7956    0.0000 O   0  0
    1.3474    1.2821    0.0000 C   0  0
    0.8887    1.4288    0.0000 N   0  0
    1.7355    1.5629    0.0000 O   0  0
   -4.2938    3.2511    0.0000 C   0  0
   -4.2949    3.8303    0.0000 F   0  0
   -4.7948    2.9606    0.0000 F   0  0
   -3.8851    3.6614    0.0000 F   0  0
  1  2  1  0
  1  6  1  0
  2  3  1  0
  3  4  1  0
  4  5  1  0
  5  6  1  0
  7  8  2  0
  8  9  1  0
  9 10  2  0
 10 11  1  0
 11 12  2  0
 12  7  1  0
  8 13  1  0
 13 14  1  0
 13 15  1  0
 13 16  1  0
 11 17  1  0
 20 21  1  0
 18 19  1  0
 17 18  1  0
 19 20  2  0
 21 17  2  0
 20 22  1  0
 19 23  1  0
 23 24  1  0
 24 25  1  0
 25 26  2  0
 26 27  1  0
 27 28  2  0
 28 29  1  0
 29 30  2  0
 30 25  1  0
 27 31  1  0
 28 32  1  0
 33 34  1  0
 32 33  2  0
 34 35  1  0
 35 36  1  0
 36 32  1  0
 35 37  2  0
 22  4  1  0
  1 38  1  0
 38 39  1  0
 38 40  1  0
 38 41  1  0
M  END
>  <ID_NEW>
CPDPP3175

>  <pEC50>
7.5094685975833295

$$$$

  -MTS-   10172316532D 0   0.00000     0.00000     0

 45 49  0  0  1  0  0  0  0  0999 V2000
   -3.4020   -2.0380    0.0000 C   0  0  0  0  0  0  0  0  0  0  0  0
   -3.2900   -1.3340    0.0000 C   0  0  2  0  0  0  0  0  0  0  0  0
   -3.8410   -0.8870    0.0000 C   0  0  0  0  0  0  0  0  0  0  0  0
   -4.5070   -1.1400    0.0000 C   0  0  0  0  0  0  0  0  0  0  0  0
   -4.6190   -1.8450    0.0000 C   0  0  1  0  0  0  0  0  0  0  0  0
   -4.0650   -2.2960    0.0000 C   0  0  0  0  0  0  0  0  0  0  0  0
   -5.2810   -2.0970    0.0000 C   0  0  0  0  0  0  0  0  0  0  0  0
   -5.8310   -1.6510    0.0000 F   0  0  0  0  0  0  0  0  0  0  0  0
   -5.3930   -2.7970    0.0000 F   0  0  0  0  0  0  0  0  0  0  0  0
   -5.3540   -1.3930    0.0000 F   0  0  0  0  0  0  0  0  0  0  0  0
   -2.6280   -1.0800    0.0000 C   0  0  0  0  0  0  0  0  0  0  0  0
   -2.0340   -1.4690    0.0000 N   0  0  0  0  0  0  0  0  0  0  0  0
   -1.4840   -1.0230    0.0000 C   0  0  0  0  0  0  0  0  0  0  0  0
   -1.7370   -0.3620    0.0000 C   0  0  0  0  0  0  0  0  0  0  0  0
   -2.4440   -0.3990    0.0000 S   0  0  0  0  0  0  0  0  0  0  0  0
   -0.7990   -1.2070    0.0000 C   0  0  0  0  0  0  0  0  0  0  0  0
   -0.6170   -1.8910    0.0000 N   0  0  0  0  0  0  0  0  0  0  0  0
   -1.1210   -2.3940    0.0000 C   0  0  0  0  0  0  0  0  0  0  0  0
   -0.9410   -3.0760    0.0000 C   0  0  0  0  0  0  0  0  0  0  0  0
   -0.2570   -3.2630    0.0000 C   0  0  0  0  0  0  0  0  0  0  0  0
    0.2460   -2.7630    0.0000 C   0  0  0  0  0  0  0  0  0  0  0  0
    0.0650   -2.0760    0.0000 C   0  0  0  0  0  0  0  0  0  0  0  0
   -0.0770   -3.9480    0.0000 C   0  0  0  0  0  0  0  0  0  0  0  0
   -0.5800   -4.4470    0.0000 F   0  0  0  0  0  0  0  0  0  0  0  0
    0.6060   -4.1340    0.0000 F   0  0  0  0  0  0  0  0  0  0  0  0
   -0.7850   -3.9450    0.0000 F   0  0  0  0  0  0  0  0  0  0  0  0
   -1.3510    0.2320    0.0000 C   0  0  2  0  0  0  0  0  0  0  0  0
   -0.6440    0.1940    0.0000 O   0  0  0  0  0  0  0  0  0  0  0  0
   -1.6720    0.8630    0.0000 C   0  0  0  0  0  0  0  0  0  0  0  0
   -2.3800    0.9010    0.0000 C   0  0  0  0  0  0  0  0  0  0  0  0
   -0.2590    0.7860    0.0000 C   0  0  0  0  0  0  0  0  0  0  0  0
    0.4500    0.7510    0.0000 C   0  0  0  0  0  0  0  0  0  0  0  0
    0.8330    1.3460    0.0000 C   0  0  0  0  0  0  0  0  0  0  0  0
    0.5090    1.9770    0.0000 C   0  0  0  0  0  0  0  0  0  0  0  0
   -0.2020    2.0090    0.0000 C   0  0  0  0  0  0  0  0  0  0  0  0
   -0.5830    1.4140    0.0000 C   0  0  0  0  0  0  0  0  0  0  0  0
    1.5410    1.3110    0.0000 O   0  0  0  0  0  0  0  0  0  0  0  0
    1.8650    0.6810    0.0000 C   0  0  0  0  0  0  0  0  0  0  0  0
    0.8920    2.5730    0.0000 C   0  0  0  0  0  0  0  0  0  0  0  0
    1.6000    2.5400    0.0000 N   0  0  0  0  0  0  0  0  0  0  0  0
    0.5670    3.2030    0.0000 N   0  0  0  0  0  0  0  0  0  0  0  0
    0.9500    3.7990    0.0000 O   0  0  0  0  0  0  0  0  0  0  0  0
    1.8940    3.1910    0.0000 C   0  0  0  0  0  0  0  0  0  0  0  0
    2.5990    3.2610    0.0000 O   0  0  0  0  0  0  0  0  0  0  0  0
   -1.2900    1.4460    0.0000 F   0  0  0  0  0  0  0  0  0  0  0  0
 20 21  1  0  0  0  0
 21 22  1  0  0  0  0
  7  8  1  0  0  0  0
 20 23  1  0  0  0  0
 23 24  1  0  0  0  0
  7  9  1  0  0  0  0
 23 25  1  0  0  0  0
 23 26  1  0  0  0  0
  7 10  1  0  0  0  0
 14 27  1  0  0  0  0
 27 28  1  0  0  0  0
  2 11  1  6  0  0  0
 27 29  1  1  0  0  0
 11 12  2  0  0  0  0
 29 30  1  0  0  0  0
 28 31  1  0  0  0  0
 31 32  2  0  0  0  0
 32 33  1  0  0  0  0
  1  6  1  0  0  0  0
 33 34  2  0  0  0  0
 12 13  1  0  0  0  0
 34 35  1  0  0  0  0
 13 14  2  0  0  0  0
 35 36  2  0  0  0  0
 36 31  1  0  0  0  0
 14 15  1  0  0  0  0
 15 11  1  0  0  0  0
 33 37  1  0  0  0  0
  2  3  1  0  0  0  0
 37 38  1  0  0  0  0
 13 16  1  0  0  0  0
  3  4  1  0  0  0  0
 16 17  1  0  0  0  0
 34 39  1  0  0  0  0
 17 18  1  0  0  0  0
 39 40  1  0  0  0  0
  5  4  1  0  0  0  0
 39 41  2  0  0  0  0
  5  6  1  0  0  0  0
 41 42  1  0  0  0  0
  5  7  1  1  0  0  0
  1  2  1  0  0  0  0
 17 22  1  0  0  0  0
 18 19  1  0  0  0  0
 19 20  1  0  0  0  0
 40 43  1  0  0  0  0
 43 44  2  0  0  0  0
 42 43  1  0  0  0  0
 36 45  1  0  0  0  0
M  END
>  <ID_NEW>
CPDPP3176

>  <pEC50>
7.49852997017329

$$$$

  SciTegic04271212392D

 29 32  0  0  0  0            999 V2000
   -0.9054   -5.3895    0.0000 C   0  0
   -1.9161   -6.4004    0.0000 C   0  0
   -1.2694   -4.0054    0.0000 C   0  0
    0.4751   -5.7716    0.0000 C   0  0
   -3.2999   -6.0191    0.0000 C   0  0
   -1.5421   -7.7817    0.0000 Cl  0  0
   -2.6456   -3.6257    0.0000 C   0  0
   -3.6639   -4.6351    0.0000 C   0  0
   -5.0468   -4.2571    0.0000 Cl  0  0
    0.9773   -7.1069    0.0000 S   0  0
    2.4084   -7.0438    0.0000 C   0  0
    2.7906   -5.6633    0.0000 C   0  0
    1.5957   -4.8733    0.0000 N   0  0
    4.1321   -5.1609    0.0000 C   0  0
    5.2380   -6.0715    0.0000 O   0  0
    3.3006   -8.1645    0.0000 C   0  0
    6.5795   -5.5691    0.0000 C   0  0
    7.6847   -6.4829    0.0000 C   0  0
    9.0252   -5.9815    0.0000 C   0  0
    9.2619   -4.5671    0.0000 C   0  0
    8.1474   -3.6553    0.0000 C   0  0
    6.8112   -4.1616    0.0000 C   0  0
   10.6042   -4.0623    0.0000 C   0  0
   10.1297   -6.8917    0.0000 Cl  0  0
   11.8056   -4.8452    0.0000 N   0  0
   12.9263   -3.9503    0.0000 O   0  0
   12.4214   -2.6079    0.0000 C   0  0
   10.9889   -2.6734    0.0000 N   0  0
   13.2106   -1.4104    0.0000 O   0  0
  1  2  2  0
  1  3  1  0
  1  4  1  0
  2  5  1  0
  2  6  1  0
  3  7  2  0
  5  8  2  0
  7  8  1  0
  8  9  1  0
  4 10  1  0
 10 11  1  0
 11 12  2  0
  4 13  2  0
 12 13  1  0
 12 14  1  0
 14 15  1  0
 11 16  1  0
 15 17  1  0
 17 18  2  0
 18 19  1  0
 19 20  2  0
 20 21  1  0
 17 22  1  0
 21 22  2  0
 20 23  1  0
 19 24  1  0
 23 25  2  0
 25 26  1  0
 26 27  1  0
 23 28  1  0
 27 28  1  0
 27 29  2  0
M  END
>  <ID_NEW>
CPDPP3177

>  <pEC50>
7.475751452656792

$$$$

  -MTS-   10172316532D 0   0.00000     0.00000     0

 33 36  0  0  0  0  0  0  0  0999 V2000
    4.4910   -1.8710    0.0000 C   0  0  0  0  0  0  0  0  0  0  0  0
    4.1640   -2.8150    0.0000 C   0  0  0  0  0  0  0  0  0  0  0  0
    4.7300   -3.6370    0.0000 C   0  0  0  0  0  0  0  0  0  0  0  0
    5.7290   -3.6600    0.0000 C   0  0  0  0  0  0  0  0  0  0  0  0
    1.6240   -6.2370    0.0000 C   0  0  0  0  0  0  0  0  0  0  0  0
    0.7200   -5.8090    0.0000 C   0  0  1  0  0  0  0  0  0  0  0  0
    0.6350   -4.8130    0.0000 C   0  0  0  0  0  0  0  0  0  0  0  0
    1.4550   -4.2430    0.0000 C   0  0  0  0  0  0  0  0  0  0  0  0
    2.3590   -4.6710    0.0000 C   0  0  2  0  0  0  0  0  0  0  0  0
    2.4440   -5.6680    0.0000 C   0  0  0  0  0  0  0  0  0  0  0  0
    3.1870   -4.1020    0.0000 C   0  0  0  0  0  0  0  0  0  0  0  0
    3.2050   -3.1020    0.0000 N   0  0  0  0  0  0  0  0  0  0  0  0
    4.1260   -4.4320    0.0000 O   0  0  0  0  0  0  0  0  0  0  0  0
   -0.1080   -6.3780    0.0000 C   0  0  0  0  0  0  0  0  0  0  0  0
   -0.8700   -5.7320    0.0000 F   0  0  0  0  0  0  0  0  0  0  0  0
   -0.8140   -7.0820    0.0000 F   0  0  0  0  0  0  0  0  0  0  0  0
    0.5370   -7.1480    0.0000 F   0  0  0  0  0  0  0  0  0  0  0  0
    5.4720   -1.6840    0.0000 O   0  0  0  0  0  0  0  0  0  0  0  0
    5.4670   -0.6830    0.0000 C   0  0  0  0  0  0  0  0  0  0  0  0
    6.2100   -4.5370    0.0000 O   0  0  0  0  0  0  0  0  0  0  0  0
    7.2140   -4.5610    0.0000 C   0  0  0  0  0  0  0  0  0  0  0  0
    7.6890   -5.4430    0.0000 C   0  0  0  0  0  0  0  0  0  0  0  0
    8.6910   -5.4680    0.0000 C   0  0  0  0  0  0  0  0  0  0  0  0
    9.2150   -4.6110    0.0000 C   0  0  0  0  0  0  0  0  0  0  0  0
    8.7290   -3.7270    0.0000 C   0  0  0  0  0  0  0  0  0  0  0  0
    7.7290   -3.7060    0.0000 C   0  0  0  0  0  0  0  0  0  0  0  0
   10.2190   -4.6350    0.0000 C   0  0  0  0  0  0  0  0  0  0  0  0
    9.2520   -2.8650    0.0000 Cl  0  0  0  0  0  0  0  0  0  0  0  0
   10.7900   -5.4570    0.0000 N   0  0  0  0  0  0  0  0  0  0  0  0
   11.7520   -5.1690    0.0000 O   0  0  0  0  0  0  0  0  0  0  0  0
   11.7760   -4.1650    0.0000 C   0  0  0  0  0  0  0  0  0  0  0  0
   10.8280   -3.8320    0.0000 N   0  0  0  0  0  0  0  0  0  0  0  0
   12.6020   -3.5930    0.0000 O   0  0  0  0  0  0  0  0  0  0  0  0
  1  2  1  0  0  0  0
  3  4  1  0  0  0  0
  5  6  1  0  0  0  0
  5 10  1  0  0  0  0
 11 12  2  0  0  0  0
  6  7  1  0  0  0  0
 11 13  1  0  0  0  0
  7  8  1  0  0  0  0
  6 14  1  6  0  0  0
  8  9  1  0  0  0  0
 14 15  1  0  0  0  0
  9 10  1  0  0  0  0
 14 16  1  0  0  0  0
  9 11  1  1  0  0  0
 14 17  1  0  0  0  0
  2 12  1  0  0  0  0
  3 13  1  0  0  0  0
  2  3  2  0  0  0  0
  1 18  1  0  0  0  0
 18 19  1  0  0  0  0
  4 20  1  0  0  0  0
 20 21  1  0  0  0  0
 21 22  2  0  0  0  0
 22 23  1  0  0  0  0
 23 24  2  0  0  0  0
 24 25  1  0  0  0  0
 25 26  2  0  0  0  0
 26 21  1  0  0  0  0
 24 27  1  0  0  0  0
 25 28  1  0  0  0  0
 27 29  2  0  0  0  0
 29 30  1  0  0  0  0
 30 31  1  0  0  0  0
 31 32  1  0  0  0  0
 32 27  1  0  0  0  0
 31 33  2  0  0  0  0
V    6 M1
V    9 M1
M  END
>  <ID_NEW>
CPDPP3178

>  <pEC50>
7.463369908922929

$$$$

  SciTegic12180813032D

 40 44  0  0  0  0            999 V2000
    3.6319   -5.5583    0.0000 C   0  0
    3.6308   -6.1857    0.0000 C   0  0
    4.1748   -6.4985    0.0000 C   0  0
    4.7162   -6.1852    0.0000 C   0  0
    4.7133   -5.5547    0.0000 C   0  0
    4.1730   -5.2455    0.0000 C   0  0
    3.0895   -6.4981    0.0000 C   0  0
    2.5482   -6.1856    0.0000 F   0  0
    3.0894   -7.1231    0.0000 F   0  0
    2.9278   -5.8944    0.0000 F   0  0
    5.2533   -5.2399    0.0000 C   0  0
    5.8268   -5.4901    0.0000 N   0  0
    6.2430   -5.0239    0.0000 C   0  0
    5.9282   -4.4839    0.0000 C   0  0
    5.3174   -4.6166    0.0000 S   0  0
    6.8649   -5.0866    0.0000 C   0  0
    7.1215   -5.6565    0.0000 C   0  0
    7.7433   -5.7191    0.0000 C   0  0
    8.0000   -6.2890    0.0000 N   0  0
    6.1799   -3.9119    0.0000 C   0  0
    6.8012   -3.8438    0.0000 O   0  0
    7.0529   -3.2718    0.0000 C   0  0
    7.6745   -3.2049    0.0000 C   0  0
    7.9262   -2.6335    0.0000 C   0  0
    7.5565   -2.1287    0.0000 C   0  0
    6.9322   -2.1991    0.0000 C   0  0
    6.6834   -2.7706    0.0000 C   0  0
    7.8075   -1.5563    0.0000 C   0  0
    8.4287   -1.4874    0.0000 N   0  0
    8.5834   -0.8792    0.0000 C   0  0
    8.1358   -0.4429    0.0000 O   0  0
    9.1850   -0.7097    0.0000 O   0  0
    7.4373   -1.0527    0.0000 N   0  0
    8.5475   -2.5657    0.0000 O   0  0
    8.9168   -3.0699    0.0000 C   0  0
    7.6311   -6.7929    0.0000 C   0  0
    7.8853   -7.3609    0.0000 C   0  0
    8.5070   -7.4268    0.0000 S   0  0
    8.8739   -6.9199    0.0000 C   0  0
    8.6190   -6.3471    0.0000 C   0  0
  1  2  2  0
  2  3  1  0
  3  4  2  0
  4  5  1  0
  5  6  2  0
  6  1  1  0
  2  7  1  0
  7  8  1  0
  7  9  1  0
  7 10  1  0
  5 11  1  0
 11 12  2  0
 12 13  1  0
 13 14  2  0
 14 15  1  0
 15 11  1  0
 13 16  1  0
 16 17  1  0
 17 18  1  0
 18 19  1  0
 14 20  1  0
 20 21  1  0
 21 22  1  0
 22 23  2  0
 23 24  1  0
 24 25  2  0
 25 26  1  0
 26 27  2  0
 27 22  1  0
 25 28  1  0
 28 29  1  0
 29 30  1  0
 30 31  1  0
 30 32  2  0
 28 33  2  0
 33 31  1  0
 24 34  1  0
 34 35  1  0
 19 36  1  0
 19 40  1  0
 36 37  1  0
 37 38  1  0
 38 39  1  0
 39 40  1  0
M  END
>  <ID_NEW>
CPDPP3179

>  <pEC50>
7.442851316871238

$$$$

  SciTegic12180813532D

 34 38  0  0  0  0            999 V2000
   12.6461   -5.5800    0.0000 C   0  0
   12.3842   -6.3616    0.0000 N   0  0
   13.0456   -6.8466    0.0000 C   0  0
   13.7199   -6.3687    0.0000 O   0  0
   13.4661   -5.5851    0.0000 N   0  0
   13.0410   -7.6754    0.0000 O   0  0
    8.7411    0.6241    0.0000 C   0  0
    8.2103    1.2503    0.0000 N   0  0
    7.3993    1.1122    0.0000 C   0  0
    7.1139    0.3276    0.0000 C   0  0
    7.6457   -0.3024    0.0000 C   0  0
    8.4545   -0.1570    0.0000 C   0  0
    6.8653    1.7527    0.0000 C   0  0
    6.3338    2.3891    0.0000 F   0  0
    6.2279    1.2226    0.0000 F   0  0
    7.5025    2.2830    0.0000 F   0  0
   12.9513   -4.1846    0.0000 C   0  0
   12.6988   -3.3983    0.0000 C   0  0
   11.8938   -3.2220    0.0000 C   0  0
   11.3407   -3.8349    0.0000 C   0  0
   11.5933   -4.6197    0.0000 C   0  0
   12.3986   -4.7923    0.0000 C   0  0
   11.6406   -2.4340    0.0000 S   0  0
   10.8524   -2.6898    0.0000 O   0  0
   12.4283   -2.1829    0.0000 O   0  0
   11.3848   -1.6485    0.0000 N   0  0
    9.1736   -0.5708    0.0000 C   0  0
    9.1724   -1.3940    0.0000 C   0  0
    9.8913   -1.8068    0.0000 C   0  0
    9.8896   -0.1580    0.0000 C   0  0
   10.6008   -0.5672    0.0000 C   0  0
   10.6015   -1.3936    0.0000 C   0  0
   11.8667   -0.9854    0.0000 C   0  0
   11.3853   -0.3155    0.0000 C   0  0
  1  2  1  0
  2  3  1  0
  3  4  1  0
  4  5  1  0
  5  1  2  0
  3  6  2  0
 11 12  2  0
 12  7  1  0
  7  8  2  0
  9 10  2  0
  9 13  1  0
 13 14  1  0
 10 11  1  0
 13 15  1  0
  8  9  1  0
 13 16  1  0
 23 25  2  0
 21 22  2  0
 22 17  1  0
 17 18  2  0
 22  1  1  0
 19 20  2  0
 19 23  1  0
 20 21  1  0
 23 24  2  0
 18 19  1  0
 28 29  1  0
 29 32  2  0
 27 28  2  0
 31 30  2  0
 32 26  1  0
 26 33  1  0
 33 34  1  0
 34 31  1  0
 30 27  1  0
 31 32  1  0
 26 23  1  0
 27 12  1  0
M  END
>  <ID_NEW>
CPDPP3180

>  <pEC50>
7.432751520443008

$$$$

  SciTegic12180812582D

 40 44  0  0  0  0            999 V2000
   20.5472   -9.6002    0.0000 C   0  0
   20.5495   -8.1002    0.0000 C   0  0
   21.8450  -10.3522    0.0000 C   0  0
   21.8497   -7.3522    0.0000 C   0  0
   23.1452   -9.6042    0.0000 C   0  0
   26.0745   -5.5550    0.0000 C   0  0
   23.1476   -8.1042    0.0000 C   0  0
   26.6868   -4.1857    0.0000 O   0  0
   25.8171   -7.9684    0.0000 N   0  0
   26.8225   -6.8552    0.0000 O   0  0
   19.2470  -10.3482    0.0000 O   0  0
   24.4431  -10.3562    0.0000 Cl  0  0
   24.4477   -7.3562    0.0000 C   0  0
   24.6068   -5.8646    0.0000 N   0  0
   12.9179  -13.6691    0.0000 C   0  0
   12.3056  -15.0385    0.0000 C   0  0
   13.1854  -16.2534    0.0000 C   0  0
   14.6775  -16.0989    0.0000 C   0  0
   15.2897  -14.7295    0.0000 C   0  0
   14.4099  -13.5147    0.0000 C   0  0
   12.5732  -17.6228    0.0000 C   0  0
   15.0221  -12.1453    0.0000 C   0  0
   16.4898  -11.8357    0.0000 S   0  0
   16.6489  -10.3441    0.0000 C   0  0
   15.2795   -9.7319    0.0000 C   0  0
   14.2741  -10.8451    0.0000 N   0  0
   14.9699   -8.2642    0.0000 C   0  0
   17.9491   -9.5962    0.0000 C   0  0
   13.7375  -18.5686    0.0000 F   0  0
   11.7325  -18.8650    0.0000 F   0  0
   11.2624  -16.8935    0.0000 F   0  0
   13.5441   -7.7985    0.0000 O   0  0
   13.2345   -6.3308    0.0000 C   0  0
   11.8086   -5.8651    0.0000 C   0  0
   11.4990   -4.3974    0.0000 N   0  0
   12.6152   -3.3954    0.0000 C   0  0
   12.3056   -1.9277    0.0000 C   0  0
   10.8798   -1.4620    0.0000 O   0  0
    9.7635   -2.4639    0.0000 C   0  0
   10.0731   -3.9316    0.0000 C   0  0
  6  8  2  0
  5  7  1  0
  1  2  2  0
  1  3  1  0
  2  4  1  0
  3  5  2  0
  4  7  2  0
  9 10  1  0
 19 20  2  0
 23 24  1  0
 24 25  2  0
 25 26  1  0
 26 22  2  0
 20 15  1  0
 25 27  1  0
 15 16  2  0
 13 14  1  0
 24 28  1  0
 17 21  1  0
 17 18  2  0
 20 22  1  0
 21 29  1  0
 33 34  1  0
 34 35  1  0
 35 36  1  0
 35 40  1  0
 36 37  1  0
 37 38  1  0
 38 39  1  0
 39 40  1  0
 27 32  1  0
 32 33  1  0
 22 23  1  0
 21 30  1  0
 21 31  1  0
 18 19  1  0
 16 17  1  0
  9 13  2  0
  1 11  1  0
  5 12  1  0
  7 13  1  0
  6 14  1  0
  6 10  1  0
 11 28  1  0
M  END
>  <ID_NEW>
CPDPP3181

>  <pEC50>
7.4075306217563455

$$$$

  SciTegic12180813022D

 36 39  0  0  0  0            999 V2000
    4.6578   -0.7938    0.0000 C   0  0
    3.9950   -1.9693    0.0000 C   0  0
    3.9966    0.3756    0.0000 C   0  0
    6.0096   -0.7948    0.0000 C   0  0
    2.6398   -1.9683    0.0000 C   0  0
    4.6562   -3.1766    0.0000 C   0  0
    2.6414    0.3766    0.0000 C   0  0
    1.9406   -0.7920    0.0000 C   0  0
    0.5721   -0.7893    0.0000 O   0  0
   -4.1941    0.4184    0.0000 C   0  0
   -4.6016   -0.3017    0.0000 C   0  0
   -4.1819   -1.0124    0.0000 C   0  0
   -3.3548   -1.0044    0.0000 C   0  0
   -2.9492   -0.2796    0.0000 C   0  0
   -3.3713    0.4282    0.0000 C   0  0
   -2.1243   -0.2683    0.0000 C   0  0
   -1.6293   -0.9273    0.0000 O   0  0
   -0.8483   -0.6616    0.0000 C   0  0
   -0.8596    0.1634    0.0000 C   0  0
   -1.6477    0.4074    0.0000 N   0  0
   -5.4266   -0.3093    0.0000 O   0  0
   -0.1742   -1.1372    0.0000 C   0  0
   -0.1996    0.6597    0.0000 C   0  0
   -5.8325   -1.0275    0.0000 C   0  0
   -0.1327    1.4820    0.0000 N   0  0
    0.6129    1.8352    0.0000 C   0  0
    6.8066   -1.8838    0.0000 N   0  0
    8.0925   -1.4670    0.0000 O   0  0
    8.0935   -0.1151    0.0000 C   0  0
    6.8082    0.3034    0.0000 N   0  0
    9.1878    0.6788    0.0000 O   0  0
   -0.8114    1.9511    0.0000 C   0  0
   -0.7445    2.7733    0.0000 C   0  0
    0.6798    2.6574    0.0000 C   0  0
    1.4254    3.0106    0.0000 O   0  0
    1.4923    3.8329    0.0000 C   0  0
  1  2  1  0
  1  3  2  0
  1  4  1  0
  2  5  2  0
  2  6  1  0
  3  7  1  0
  5  8  1  0
  7  8  2  0
  8  9  1  0
 10 11  2  0
 11 12  1  0
 12 13  2  0
 13 14  1  0
 14 15  2  0
 15 10  1  0
 14 16  1  0
 16 17  1  0
 17 18  1  0
 18 19  2  0
 19 20  1  0
 20 16  2  0
 11 21  1  0
 18 22  1  0
 22  9  1  0
 19 23  1  0
 21 24  1  0
 23 25  1  0
 25 26  1  0
  4 27  2  0
 27 28  1  0
 28 29  1  0
 29 30  1  0
 30  4  1  0
 29 31  2  0
 25 32  1  0
 32 33  1  0
 26 34  1  0
 34 35  1  0
 35 36  1  0
M  END
>  <ID_NEW>
CPDPP3182

>  <pEC50>
7.399134642194459

$$$$

  SciTegic12180812482D

 36 39  0  0  0  0            999 V2000
   -1.6180    3.8280    0.0000 C   0  0
   -1.8855    3.4321    0.0000 C   0  0
   -1.6700    3.0030    0.0000 C   0  0
   -1.1932    2.9757    0.0000 C   0  0
   -0.9398    3.3806    0.0000 C   0  0
   -1.1460    3.7963    0.0000 C   0  0
   -2.3541    3.4562    0.0000 O   0  0
   -0.9908    2.5506    0.0000 Cl  0  0
   -4.8337    3.0461    0.0000 C   0  0
   -5.0979    2.6493    0.0000 C   0  0
   -4.8856    2.2274    0.0000 C   0  0
   -4.4190    2.2027    0.0000 C   0  0
   -4.1564    2.6001    0.0000 C   0  0
   -4.3677    3.0211    0.0000 C   0  0
   -5.5700    2.6767    0.0000 C   0  0
   -5.7816    3.1026    0.0000 F   0  0
   -5.8325    2.2858    0.0000 F   0  0
   -5.4232    3.1268    0.0000 F   0  0
   -3.6905    2.5730    0.0000 C   0  0
   -3.4314    2.1725    0.0000 N   0  0
   -2.9780    2.3000    0.0000 C   0  0
   -2.9522    2.7713    0.0000 C   0  0
   -3.3907    2.9380    0.0000 S   0  0
   -2.5480    3.0289    0.0000 C   0  0
   -2.6115    2.0015    0.0000 C   0  0
   -2.6885    1.5344    0.0000 C   0  0
   -2.3219    1.2359    0.0000 C   0  0
   -0.4612    3.3565    0.0000 C   0  0
   -0.2401    2.9261    0.0000 N   0  0
   -0.1996    3.7546    0.0000 N   0  0
    0.2749    3.5806    0.0000 C   0  0
    0.2385    3.0229    0.0000 O   0  0
    0.6454    3.8307    0.0000 O   0  0
   -2.3972    0.7692    0.0000 C   0  0
   -1.8802    1.4040    0.0000 O   0  0
   -2.8390    0.6011    0.0000 O   0  0
  3  4  2  0
  4  5  1  0
  5  6  2  0
  6  1  1  0
  2  7  1  0
  4  8  1  0
  9 10  2  0
 10 11  1  0
 11 12  2  0
 12 13  1  0
 13 14  2  0
 14  9  1  0
 10 15  1  0
 15 16  1  0
 15 17  1  0
 15 18  1  0
 13 19  1  0
 20 21  1  0
 19 20  2  0
 21 22  2  0
 22 23  1  0
 23 19  1  0
 22 24  1  0
 21 25  1  0
 25 26  1  0
 26 27  1  0
  7 24  1  0
  5 28  1  0
 28 29  2  0
 28 30  1  0
 30 31  1  0
 29 32  1  0
 31 32  1  0
 31 33  2  0
 27 34  1  0
 27 35  1  0
 34 36  1  0
  1  2  2  0
  2  3  1  0
M  END
>  <ID_NEW>
CPDPP3183

>  <pEC50>
7.377195316227839

$$$$

  SciTegic12180813072D

 36 39  0  0  0  0            999 V2000
    5.1435   -3.1885    0.0000 C   0  0
    5.1467   -3.8284    0.0000 S   0  0
    5.7553   -2.9836    0.0000 N   0  0
    6.1304   -3.4930    0.0000 N   0  0
    5.7630   -4.0177    0.0000 C   0  0
    5.9774   -4.6257    0.0000 C   0  0
    5.5595   -5.1096    0.0000 C   0  0
    6.6014   -4.7411    0.0000 C   0  0
    4.5797   -2.8683    0.0000 N   0  0
    4.0262   -3.1968    0.0000 S   0  0
    3.4641   -3.5263    0.0000 C   0  0
    3.6966   -2.6398    0.0000 O   0  0
    4.3510   -3.7594    0.0000 O   0  0
    3.4648   -4.1661    0.0000 C   0  0
    2.9089   -3.2032    0.0000 C   0  0
    2.9102   -4.4894    0.0000 C   0  0
    2.3542   -4.1659    0.0000 C   0  0
    2.3562   -3.5265    0.0000 C   0  0
    1.7457   -3.3260    0.0000 C   0  0
    1.3721   -3.8429    0.0000 C   0  0
    1.7466   -4.3623    0.0000 C   0  0
    0.7305   -3.8367    0.0000 N   0  0
    0.1788   -3.5063    0.0000 C   0  0
   -0.3877   -3.8281    0.0000 C   0  0
    0.1844   -2.8613    0.0000 O   0  0
   -0.9682   -3.5673    0.0000 S   0  0
   -1.3976   -4.0430    0.0000 C   0  0
   -1.0834   -4.5943    0.0000 C   0  0
   -0.4580   -4.4659    0.0000 C   0  0
    0.0130   -4.9009    0.0000 O   0  0
   -0.1285   -5.5266    0.0000 C   0  0
   -2.0336   -3.9766    0.0000 C   0  0
   -2.6713   -3.9067    0.0000 F   0  0
   -1.9691   -3.3365    0.0000 F   0  0
   -2.1017   -4.6121    0.0000 F   0  0
    0.3427   -5.9621    0.0000 C   0  0
 10  9  1  0
 14 11  2  0
 11 15  1  0
 15 18  2  0
 17 16  2  0
 16 14  1  0
 17 18  1  0
 18 19  1  0
 19 20  1  0
 20 21  1  0
 21 17  1  0
 20 22  1  0
 10 13  2  0
 11 10  1  0
 10 12  2  0
  2  5  1  0
  4  3  1  0
  3  1  2  0
  4  5  2  0
  5  6  1  0
  6  7  1  0
  6  8  1  0
  9  1  1  0
  1  2  1  0
 22 23  1  0
 23 24  1  0
 23 25  2  0
 24 26  1  0
 26 27  1  0
 27 28  2  0
 28 29  1  0
 29 24  2  0
 29 30  1  0
 30 31  1  0
 27 32  1  0
 32 33  1  0
 32 34  1  0
 32 35  1  0
 31 36  1  0
M  END
>  <ID_NEW>
CPDPP3184

>  <pEC50>
7.373903043007624

$$$$

  SciTegic12180813082D

 43 46  0  0  0  0            999 V2000
    0.2720   -0.0289    0.0000 C   0  0
   -0.5755   -0.0280    0.0000 C   0  0
   -1.0057    0.6707    0.0000 C   0  0
   -1.8691    0.6672    0.0000 C   0  0
   -2.2937   -0.0285    0.0000 C   0  0
   -1.8689   -0.7261    0.0000 C   0  0
   -1.0080   -0.7275    0.0000 C   0  0
    0.7041   -0.7217    0.0000 O   0  0
   -0.5692    1.3654    0.0000 O   0  0
   -1.0042    2.0672    0.0000 C   0  0
   -1.8663    2.0702    0.0000 C   0  0
   -3.1420   -0.0282    0.0000 C   0  0
   -4.0000   -0.0291    0.0000 F   0  0
   -3.1450    0.7737    0.0000 F   0  0
   -3.1419   -0.8297    0.0000 F   0  0
    4.3520    1.0431    0.0000 C   0  0
    5.1015    1.4643    0.0000 S   0  0
    4.6720    2.1671    0.0000 O   0  0
    5.8399    1.8694    0.0000 N   0  0
    5.5305    0.7600    0.0000 O   0  0
    0.7018    0.6701    0.0000 N   0  0
    4.3526    0.2617    0.0000 C   0  0
    3.6133    1.4620    0.0000 C   0  0
    3.6147   -0.1450    0.0000 C   0  0
    2.8630    0.2619    0.0000 C   0  0
    2.8650    1.0430    0.0000 C   0  0
    2.0585    1.2976    0.0000 C   0  0
    1.5684    0.6597    0.0000 C   0  0
    2.0594    0.0071    0.0000 C   0  0
    5.1005   -0.1389    0.0000 O   0  0
    6.5910    1.4810    0.0000 C   0  0
    7.4153    1.7281    0.0000 S   0  0
    7.9056    1.0916    0.0000 C   0  0
    7.4186    0.4385    0.0000 N   0  0
    6.5942    0.6863    0.0000 N   0  0
    8.7665    1.1224    0.0000 C   0  0
    9.1831    1.8293    0.0000 C   0  0
    9.2059    0.4259    0.0000 C   0  0
    5.1200   -0.9429    0.0000 C   0  0
    5.8157   -1.3166    0.0000 C   0  0
    6.4712   -1.6567    0.0000 F   0  0
    5.9853   -2.1387    0.0000 F   0  0
    6.5927   -0.9921    0.0000 F   0  0
 23 26  2  0
 25 24  2  0
 24 22  1  0
 25 26  1  0
 19 31  1  0
 31 32  1  0
 32 33  1  0
 33 34  2  0
 34 35  1  0
 35 31  2  0
 33 36  1  0
 36 37  1  0
 36 38  1  0
  1  2  1  0
  2  3  2  0
  3  4  1  0
  4  5  2  0
  5  6  1  0
  6  7  2  0
  7  2  1  0
  1  8  2  0
  3  9  1  0
  9 10  1  0
 10 11  1  0
  5 12  1  0
 12 13  1  0
 12 14  1  0
 12 15  1  0
 21  1  1  0
 30 39  1  0
 39 40  1  0
 40 41  1  0
 40 42  1  0
 40 43  1  0
 26 27  1  0
 27 28  1  0
 28 29  1  0
 29 25  1  0
 28 21  1  0
 22 30  1  0
 17 20  2  0
 16 17  1  0
 17 18  2  0
 17 19  1  0
 22 16  2  0
 16 23  1  0
M  END
>  <ID_NEW>
CPDPP3185

>  <pEC50>
7.372482070624204

$$$$

  -MTS-   10172316532D 0   0.00000     0.00000     0

 37 39  0  0  1  0  0  0  0  0999 V2000
   -1.5390   -2.7120    0.0000 C   0  0  0  0  0  0  0  0  0  0  0  0
   -1.5400   -3.5400    0.0000 C   0  0  0  0  0  0  0  0  0  0  0  0
   -0.8250   -3.9530    0.0000 C   0  0  0  0  0  0  0  0  0  0  0  0
   -0.1090   -3.5390    0.0000 C   0  0  0  0  0  0  0  0  0  0  0  0
   -0.1120   -2.7090    0.0000 C   0  0  0  0  0  0  0  0  0  0  0  0
   -0.8270   -2.3000    0.0000 C   0  0  0  0  0  0  0  0  0  0  0  0
    0.6010   -2.2940    0.0000 C   0  0  0  0  0  0  0  0  0  0  0  0
    0.5980   -1.4690    0.0000 O   0  0  0  0  0  0  0  0  0  0  0  0
   -2.2550   -3.9520    0.0000 C   0  0  0  0  0  0  0  0  0  0  0  0
   -2.9690   -3.5390    0.0000 F   0  0  0  0  0  0  0  0  0  0  0  0
   -2.2550   -4.7770    0.0000 F   0  0  0  0  0  0  0  0  0  0  0  0
   -2.4680   -3.1550    0.0000 F   0  0  0  0  0  0  0  0  0  0  0  0
    7.7540   -3.2870    0.0000 N   0  0  0  0  0  0  0  0  0  0  0  0
    8.5790   -3.2870    0.0000 N   0  0  0  0  0  0  0  0  0  0  0  0
    8.8390   -2.5030    0.0000 C   0  0  0  0  0  0  0  0  0  0  0  0
    8.1670   -2.0170    0.0000 S   0  0  0  0  0  0  0  0  0  0  0  0
    7.5070   -2.5030    0.0000 C   0  0  0  0  0  0  0  0  0  0  0  0
    6.7250   -2.2490    0.0000 N   0  0  0  0  0  0  0  0  0  0  0  0
    9.6290   -2.2490    0.0000 C   0  0  0  0  0  0  0  0  0  0  0  0
   10.2410   -2.8020    0.0000 C   0  0  0  0  0  0  0  0  0  0  0  0
    9.8020   -1.4430    0.0000 C   0  0  0  0  0  0  0  0  0  0  0  0
    3.5160   -2.9350    0.0000 C   0  0  0  0  0  0  0  0  0  0  0  0
    2.7730   -3.0290    0.0000 C   0  0  2  0  0  0  0  0  0  0  0  0
    3.9750   -3.5250    0.0000 C   0  0  0  0  0  0  0  0  0  0  0  0
    3.8020   -2.2390    0.0000 C   0  0  0  0  0  0  0  0  0  0  0  0
    2.3130   -2.4390    0.0000 C   0  0  0  0  0  0  0  0  0  0  0  0
    2.4870   -3.7280    0.0000 C   0  0  0  0  0  0  0  0  0  0  0  0
    4.7200   -3.4260    0.0000 C   0  0  0  0  0  0  0  0  0  0  0  0
    4.5500   -2.1410    0.0000 C   0  0  0  0  0  0  0  0  0  0  0  0
    1.5650   -2.5440    0.0000 N   0  0  0  0  0  0  0  0  0  0  0  0
    5.0100   -2.7410    0.0000 C   0  0  0  0  0  0  0  0  0  0  0  0
    5.7250   -2.5420    0.0000 S   0  0  0  0  0  0  0  0  0  0  0  0
    5.9170   -3.2580    0.0000 O   0  0  0  0  0  0  0  0  0  0  0  0
    5.5290   -1.8250    0.0000 O   0  0  0  0  0  0  0  0  0  0  0  0
    0.6060   -3.9510    0.0000 O   0  0  0  0  0  0  0  0  0  0  0  0
    0.6080   -4.7760    0.0000 C   0  0  0  0  0  0  0  0  0  0  0  0
    1.3230   -5.1870    0.0000 C   0  0  0  0  0  0  0  0  0  0  0  0
  3  4  2  0  0  0  0
  9 12  1  0  0  0  0
  5  7  1  0  0  0  0
  4  5  1  0  0  0  0
  2  3  1  0  0  0  0
  7  8  2  0  0  0  0
  5  6  2  0  0  0  0
  6  1  1  0  0  0  0
  1  2  2  0  0  0  0
  2  9  1  0  0  0  0
  9 10  1  0  0  0  0
 19 21  1  0  0  0  0
 13 14  1  0  0  0  0
 14 15  2  0  0  0  0
 15 16  1  0  0  0  0
 16 17  1  0  0  0  0
 17 13  2  0  0  0  0
 17 18  1  0  0  0  0
 15 19  1  0  0  0  0
 19 20  1  0  0  0  0
 24 28  1  0  0  0  0
 25 29  2  0  0  0  0
 26 30  1  0  0  0  0
 28 31  2  0  0  0  0
 29 31  1  0  0  0  0
 22 23  1  0  0  0  0
 22 24  2  0  0  0  0
 31 32  1  0  0  0  0
 22 25  1  0  0  0  0
 32 33  2  0  0  0  0
 23 26  1  0  0  0  0
 32 34  2  0  0  0  0
 23 27  1  1  0  0  0
 18 32  1  0  0  0  0
  7 30  1  0  0  0  0
  4 35  1  0  0  0  0
 35 36  1  0  0  0  0
  9 11  1  0  0  0  0
 36 37  1  0  0  0  0
M  END
>  <ID_NEW>
CPDPP3186

>  <pEC50>
7.370661067396771

$$$$

  -MTS-   10172316532D 0   0.00000     0.00000     0

 33 36  0  0  1  0  0  0  0  0999 V2000
    8.6500   -2.8270    0.0000 C   0  0  0  0  0  0  0  0  0  0  0  0
    7.2180   -2.9300    0.0000 C   0  0  0  0  0  0  0  0  0  0  0  0
    6.4750   -2.5680    0.0000 C   0  0  0  0  0  0  0  0  0  0  0  0
    6.4180   -1.7380    0.0000 C   0  0  0  0  0  0  0  0  0  0  0  0
    7.1050   -1.2780    0.0000 C   0  0  0  0  0  0  0  0  0  0  0  0
    7.8480   -1.6400    0.0000 C   0  0  0  0  0  0  0  0  0  0  0  0
    7.9060   -2.4650    0.0000 C   0  0  0  0  0  0  0  0  0  0  0  0
    5.6750   -1.3760    0.0000 C   0  0  0  0  0  0  0  0  0  0  0  0
    2.7030   -5.1830    0.0000 C   0  0  0  0  0  0  0  0  0  0  0  0
    1.8870   -5.3280    0.0000 C   0  0  0  0  0  0  0  0  0  0  0  0
    1.3570   -4.6910    0.0000 C   0  0  0  0  0  0  0  0  0  0  0  0
    1.6370   -3.9170    0.0000 C   0  0  0  0  0  0  0  0  0  0  0  0
    2.4520   -3.7720    0.0000 C   0  0  0  0  0  0  0  0  0  0  0  0
    2.9830   -4.4080    0.0000 C   0  0  0  0  0  0  0  0  0  0  0  0
    2.7340   -2.9960    0.0000 C   0  0  0  0  0  0  0  0  0  0  0  0
    2.2700   -2.3120    0.0000 N   0  0  0  0  0  0  0  0  0  0  0  0
    2.7820   -1.6570    0.0000 C   0  0  0  0  0  0  0  0  0  0  0  0
    3.5590   -1.9420    0.0000 C   0  0  0  0  0  0  0  0  0  0  0  0
    3.5300   -2.7690    0.0000 S   0  0  0  0  0  0  0  0  0  0  0  0
    2.5510   -0.8620    0.0000 C   0  0  0  0  0  0  0  0  0  0  0  0
    4.2440   -1.4790    0.0000 C   0  0  1  0  0  0  0  0  0  0  0  0
    1.6070   -6.1020    0.0000 C   0  0  0  0  0  0  0  0  0  0  0  0
    0.7810   -6.0340    0.0000 F   0  0  0  0  0  0  0  0  0  0  0  0
    1.4610   -6.9190    0.0000 F   0  0  0  0  0  0  0  0  0  0  0  0
    2.4020   -6.3200    0.0000 F   0  0  0  0  0  0  0  0  0  0  0  0
    4.9870   -1.8410    0.0000 O   0  0  0  0  0  0  0  0  0  0  0  0
    4.1850   -0.6540    0.0000 C   0  0  0  0  0  0  0  0  0  0  0  0
    4.8730   -0.1900    0.0000 C   0  0  0  0  0  0  0  0  0  0  0  0
    8.7950   -3.6360    0.0000 N   0  0  0  0  0  0  0  0  0  0  0  0
    9.6130   -3.7500    0.0000 O   0  0  0  0  0  0  0  0  0  0  0  0
    9.9750   -3.0070    0.0000 C   0  0  0  0  0  0  0  0  0  0  0  0
    9.3800   -2.4340    0.0000 N   0  0  0  0  0  0  0  0  0  0  0  0
   10.7670   -2.7870    0.0000 O   0  0  0  0  0  0  0  0  0  0  0  0
  6  7  2  0  0  0  0
  7  2  1  0  0  0  0
  2  3  2  0  0  0  0
 11 12  2  0  0  0  0
 13 15  1  0  0  0  0
 16 17  1  0  0  0  0
 12 13  1  0  0  0  0
 10 11  1  0  0  0  0
 13 14  2  0  0  0  0
 15 16  2  0  0  0  0
 17 18  2  0  0  0  0
 18 19  1  0  0  0  0
 19 15  1  0  0  0  0
 14  9  1  0  0  0  0
 18 21  1  0  0  0  0
  9 10  2  0  0  0  0
 17 20  1  0  0  0  0
 10 22  1  0  0  0  0
 22 23  1  0  0  0  0
 22 24  1  0  0  0  0
 22 25  1  0  0  0  0
 21 26  1  0  0  0  0
 21 27  1  6  0  0  0
 28 27  1  0  0  0  0
  8 26  1  0  0  0  0
  1  7  1  0  0  0  0
  1 29  2  0  0  0  0
  4  5  2  0  0  0  0
  4  8  1  0  0  0  0
  5  6  1  0  0  0  0
 29 30  1  0  0  0  0
 30 31  1  0  0  0  0
 31 32  1  0  0  0  0
 32  1  1  0  0  0  0
  3  4  1  0  0  0  0
 31 33  2  0  0  0  0
M  END
>  <ID_NEW>
CPDPP3187

>  <pEC50>
7.3648286194078025

$$$$

  SciTegic12180813032D

 36 40  0  0  0  0            999 V2000
    7.2460   -2.6453    0.0000 C   0  0
    6.9293   -3.1812    0.0000 C   0  0
    7.2350   -3.7218    0.0000 C   0  0
    7.8573   -3.7275    0.0000 C   0  0
    8.1726   -3.1880    0.0000 C   0  0
    7.8651   -2.6496    0.0000 C   0  0
    8.7976   -3.1912    0.0000 F   0  0
    6.9176   -4.2603    0.0000 O   0  0
    6.2926   -4.2546    0.0000 C   0  0
    5.9752   -4.7930    0.0000 C   0  0
    5.3500   -4.8542    0.0000 S   0  0
    5.2145   -5.4644    0.0000 C   0  0
    5.7530   -5.7818    0.0000 N   0  0
    6.2211   -5.3677    0.0000 C   0  0
    6.8309   -5.5048    0.0000 C   0  0
    7.0171   -6.1015    0.0000 N   0  0
    4.6413   -5.7134    0.0000 C   0  0
    4.1381   -5.3425    0.0000 C   0  0
    3.5653   -5.5911    0.0000 C   0  0
    3.4940   -6.2126    0.0000 C   0  0
    4.0001   -6.5849    0.0000 C   0  0
    4.5709   -6.3343    0.0000 C   0  0
    2.9211   -6.4624    0.0000 C   0  0
    2.4183   -6.0912    0.0000 F   0  0
    2.8509   -7.0835    0.0000 F   0  0
    2.8280   -5.8444    0.0000 F   0  0
    8.1807   -2.1102    0.0000 C   0  0
    8.7792   -1.9458    0.0000 N   0  0
    8.7750   -1.3208    0.0000 C   0  0
    9.3142   -1.0047    0.0000 O   0  0
    8.1708   -0.7833    0.0000 O   0  0
    7.5460   -1.5061    0.0000 N   0  0
    6.6451   -6.6033    0.0000 C   0  0
    7.0065   -7.1133    0.0000 C   0  0
    7.6033   -6.9271    0.0000 C   0  0
    7.6105   -6.3020    0.0000 C   0  0
 15 16  1  0
 12 17  1  0
 17 18  2  0
 18 19  1  0
 19 20  2  0
 20 21  1  0
 21 22  2  0
 22 17  1  0
 20 23  1  0
 23 24  1  0
 23 25  1  0
 23 26  1  0
  1  2  2  0
  2  3  1  0
  3  4  2  0
  4  5  1  0
  5  6  2  0
  6  1  1  0
  5  7  1  0
  3  8  1  0
  8  9  1  0
  9 10  1  0
 10 11  1  0
 11 12  1  0
  6 27  1  0
 27 28  1  0
 28 29  1  0
 29 30  2  0
 29 31  1  0
 32 31  1  0
 32 27  2  0
 16 33  1  0
 33 34  1  0
 34 35  1  0
 35 36  1  0
 36 16  1  0
 12 13  2  0
 13 14  1  0
 14 10  2  0
 14 15  1  0
M  END
>  <ID_NEW>
CPDPP3188

>  <pEC50>
7.346531654834782

$$$$

  -MTS-   10172316532D 0   0.00000     0.00000     0

 33 36  0  0  1  0  0  0  0  0999 V2000
   -4.6750    0.1790    0.0000 C   0  0  0  0  0  0  0  0  0  0  0  0
   -4.6750   -0.4170    0.0000 C   0  0  1  0  0  0  0  0  0  0  0  0
   -4.1590   -0.7120    0.0000 C   0  0  0  0  0  0  0  0  0  0  0  0
   -3.6430   -0.4170    0.0000 C   0  0  0  0  0  0  0  0  0  0  0  0
   -3.6430    0.1790    0.0000 C   0  0  2  0  0  0  0  0  0  0  0  0
   -4.1590    0.4790    0.0000 C   0  0  0  0  0  0  0  0  0  0  0  0
   -5.1890   -0.7130    0.0000 C   0  0  0  0  0  0  0  0  0  0  0  0
   -5.7040   -0.4170    0.0000 F   0  0  0  0  0  0  0  0  0  0  0  0
   -5.1890   -1.3080    0.0000 F   0  0  0  0  0  0  0  0  0  0  0  0
   -5.3420   -0.1400    0.0000 F   0  0  0  0  0  0  0  0  0  0  0  0
   -3.1270    0.4740    0.0000 C   0  0  0  0  0  0  0  0  0  0  0  0
   -2.5830    0.2310    0.0000 N   0  0  0  0  0  0  0  0  0  0  0  0
   -2.1850    0.6710    0.0000 C   0  0  0  0  0  0  0  0  0  0  0  0
   -2.4840    1.1860    0.0000 C   0  0  0  0  0  0  0  0  0  0  0  0
   -3.0660    1.0630    0.0000 S   0  0  0  0  0  0  0  0  0  0  0  0
   -1.5950    0.6070    0.0000 C   0  0  0  0  0  0  0  0  0  0  0  0
   -2.2380    1.7290    0.0000 C   0  0  2  0  0  0  0  0  0  0  0  0
   -1.6480    1.7910    0.0000 O   0  0  0  0  0  0  0  0  0  0  0  0
   -2.5910    2.2100    0.0000 C   0  0  0  0  0  0  0  0  0  0  0  0
   -2.3460    2.7530    0.0000 C   0  0  0  0  0  0  0  0  0  0  0  0
   -1.0470    2.6210    0.0000 C   0  0  0  0  0  0  0  0  0  0  0  0
   -1.0480    2.0810    0.0000 C   0  0  0  0  0  0  0  0  0  0  0  0
   -0.5840    1.8140    0.0000 C   0  0  0  0  0  0  0  0  0  0  0  0
   -0.1170    2.0810    0.0000 C   0  0  0  0  0  0  0  0  0  0  0  0
   -0.1200    2.6240    0.0000 C   0  0  0  0  0  0  0  0  0  0  0  0
   -0.5850    2.8880    0.0000 C   0  0  0  0  0  0  0  0  0  0  0  0
   -0.5880    3.4250    0.0000 F   0  0  0  0  0  0  0  0  0  0  0  0
    0.3440    2.8960    0.0000 C   0  0  0  0  0  0  0  0  0  0  0  0
    0.8360    2.6840    0.0000 N   0  0  0  0  0  0  0  0  0  0  0  0
    1.1930    3.0860    0.0000 C   0  0  0  0  0  0  0  0  0  0  0  0
    0.9210    3.5500    0.0000 O   0  0  0  0  0  0  0  0  0  0  0  0
    0.3960    3.4340    0.0000 N   0  0  0  0  0  0  0  0  0  0  0  0
    1.7280    3.0340    0.0000 O   0  0  0  0  0  0  0  0  0  0  0  0
  5  6  1  0  0  0  0
  2  7  1  1  0  0  0
  7  8  1  0  0  0  0
  7  9  1  0  0  0  0
  7 10  1  0  0  0  0
  5 11  1  6  0  0  0
 11 12  2  0  0  0  0
 12 13  1  0  0  0  0
 13 14  2  0  0  0  0
 14 15  1  0  0  0  0
 15 11  1  0  0  0  0
 13 16  1  0  0  0  0
 14 17  1  0  0  0  0
 17 18  1  0  0  0  0
 17 19  1  1  0  0  0
 19 20  1  0  0  0  0
 21 22  2  0  0  0  0
 22 23  1  0  0  0  0
 23 24  2  0  0  0  0
 24 25  1  0  0  0  0
 25 26  2  0  0  0  0
 26 21  1  0  0  0  0
 18 22  1  0  0  0  0
 26 27  1  0  0  0  0
 25 28  1  0  0  0  0
 28 29  1  0  0  0  0
 29 30  1  0  0  0  0
 30 31  1  0  0  0  0
 31 32  1  0  0  0  0
 32 28  2  0  0  0  0
 30 33  2  0  0  0  0
  1  2  1  0  0  0  0
  1  6  1  0  0  0  0
  2  3  1  0  0  0  0
  3  4  1  0  0  0  0
  4  5  1  0  0  0  0
M  END
>  <ID_NEW>
CPDPP3189

>  <pEC50>
7.334783719543784

$$$$

  SciTegic12180813092D

 36 39  0  0  0  0            999 V2000
    2.0082    1.6377    0.0000 C   0  0
    1.5958    0.9204    0.0000 C   0  0
    2.0106    0.2067    0.0000 C   0  0
    2.8378    0.2091    0.0000 C   0  0
    3.2483    0.9311    0.0000 C   0  0
    2.8310    1.6418    0.0000 C   0  0
    4.0732    0.9392    0.0000 C   0  0
    3.2537   -0.5034    0.0000 Cl  0  0
    0.7708    0.9184    0.0000 C   0  0
   -4.4028    1.6584    0.0000 C   0  0
   -4.4016    0.8310    0.0000 C   0  0
   -3.6753    0.4181    0.0000 C   0  0
   -2.9588    0.8315    0.0000 C   0  0
   -2.9617    1.6620    0.0000 C   0  0
   -3.6771    2.0711    0.0000 C   0  0
   -5.1201    0.4191    0.0000 C   0  0
   -5.8310    0.8321    0.0000 F   0  0
   -5.1195   -0.4059    0.0000 F   0  0
   -5.3322    1.2161    0.0000 F   0  0
   -2.2488    2.0772    0.0000 C   0  0
   -1.4942    1.7470    0.0000 S   0  0
   -0.9445    2.3622    0.0000 C   0  0
   -1.3597    3.0752    0.0000 C   0  0
   -2.1660    2.9005    0.0000 N   0  0
   -1.0271    3.8301    0.0000 C   0  0
   -0.1237    2.2791    0.0000 C   0  0
    0.2124    1.5258    0.0000 O   0  0
    0.3587    2.9484    0.0000 C   0  0
    1.1795    2.8652    0.0000 F   0  0
    0.0203    3.7008    0.0000 F   0  0
    0.8803    2.3092    0.0000 F   0  0
    4.5652    0.2803    0.0000 N   0  0
    5.3472    0.5430    0.0000 O   0  0
    5.3391    1.3679    0.0000 C   0  0
    4.5521    1.6150    0.0000 N   0  0
    6.0017    1.8594    0.0000 O   0  0
  5  6  2  0
  6  1  1  0
  1  2  2  0
  3  4  2  0
  5  7  1  0
  4  5  1  0
  4  8  1  0
  2  9  1  0
  2  3  1  0
 26 27  1  0
 10 11  2  0
 11 16  1  0
 12 13  2  0
 16 17  1  0
 16 18  1  0
 13 14  1  0
 16 19  1  0
 11 12  1  0
 14 20  1  0
 14 15  2  0
 15 10  1  0
 20 21  1  0
 21 22  1  0
 22 23  2  0
 23 24  1  0
 24 20  2  0
 23 25  1  0
 22 26  1  0
 26 28  1  0
 28 29  1  0
 28 30  1  0
 28 31  1  0
 27  9  1  0
  7 32  2  0
 32 33  1  0
 33 34  1  0
 34 35  1  0
 35  7  1  0
 34 36  2  0
M  END
>  <ID_NEW>
CPDPP3190

>  <pEC50>
7.318011076912836

$$$$

  -MTS-   10172316532D 0   0.00000     0.00000     0

 37 40  0  0  1  0  0  0  0  0999 V2000
   -4.3060    1.6040    0.0000 C   0  0  0  0  0  0  0  0  0  0  0  0
   -4.3070    0.7770    0.0000 C   0  0  0  0  0  0  0  0  0  0  0  0
   -3.5920    0.3640    0.0000 C   0  0  0  0  0  0  0  0  0  0  0  0
   -2.8750    0.7770    0.0000 C   0  0  0  0  0  0  0  0  0  0  0  0
   -2.8780    1.6080    0.0000 C   0  0  0  0  0  0  0  0  0  0  0  0
   -3.5940    2.0170    0.0000 C   0  0  0  0  0  0  0  0  0  0  0  0
   -2.1640    2.0230    0.0000 C   0  0  0  0  0  0  0  0  0  0  0  0
   -1.4480    1.6130    0.0000 N   0  0  0  0  0  0  0  0  0  0  0  0
   -2.1670    2.8480    0.0000 O   0  0  0  0  0  0  0  0  0  0  0  0
   -0.7350    2.0290    0.0000 C   0  0  1  0  0  0  0  0  0  0  0  0
    0.0160    1.6930    0.0000 C   0  0  0  0  0  0  0  0  0  0  0  0
   -0.6560    2.8470    0.0000 C   0  0  0  0  0  0  0  0  0  0  0  0
    0.1500    3.0210    0.0000 C   0  0  0  0  0  0  0  0  0  0  0  0
    0.5630    2.3090    0.0000 C   0  0  0  0  0  0  0  0  0  0  0  0
    1.3850    2.3120    0.0000 C   0  0  0  0  0  0  0  0  0  0  0  0
    1.7940    3.0260    0.0000 C   0  0  0  0  0  0  0  0  0  0  0  0
    1.3760    3.7390    0.0000 C   0  0  0  0  0  0  0  0  0  0  0  0
    0.5560    3.7330    0.0000 C   0  0  0  0  0  0  0  0  0  0  0  0
    2.6190    3.0300    0.0000 S   0  0  0  0  0  0  0  0  0  0  0  0
    3.0350    2.3180    0.0000 N   0  0  0  0  0  0  0  0  0  0  0  0
    3.8600    2.3220    0.0000 C   0  0  0  0  0  0  0  0  0  0  0  0
    4.3460    1.6580    0.0000 S   0  0  0  0  0  0  0  0  0  0  0  0
    5.1290    1.9170    0.0000 C   0  0  0  0  0  0  0  0  0  0  0  0
    5.1250    2.7420    0.0000 N   0  0  0  0  0  0  0  0  0  0  0  0
    4.3390    2.9930    0.0000 N   0  0  0  0  0  0  0  0  0  0  0  0
    5.7990    1.4360    0.0000 C   0  0  0  0  0  0  0  0  0  0  0  0
    5.7170    0.6150    0.0000 C   0  0  0  0  0  0  0  0  0  0  0  0
    6.5510    1.7750    0.0000 C   0  0  0  0  0  0  0  0  0  0  0  0
    3.2780    3.6680    0.0000 O   0  0  0  0  0  0  0  0  0  0  0  0
    2.2770    3.7990    0.0000 O   0  0  0  0  0  0  0  0  0  0  0  0
   -2.1600    0.3660    0.0000 O   0  0  0  0  0  0  0  0  0  0  0  0
   -1.4470    0.7800    0.0000 C   0  0  0  0  0  0  0  0  0  0  0  0
   -0.7310    0.3680    0.0000 C   0  0  0  0  0  0  0  0  0  0  0  0
   -5.0210    0.3650    0.0000 C   0  0  0  0  0  0  0  0  0  0  0  0
   -5.6740   -0.0100    0.0000 F   0  0  0  0  0  0  0  0  0  0  0  0
   -5.8290    0.6720    0.0000 F   0  0  0  0  0  0  0  0  0  0  0  0
   -5.1620   -0.4860    0.0000 F   0  0  0  0  0  0  0  0  0  0  0  0
  1  2  2  0  0  0  0
  2  3  1  0  0  0  0
  3  4  2  0  0  0  0
  4  5  1  0  0  0  0
  5  6  2  0  0  0  0
  6  1  1  0  0  0  0
  7  8  1  0  0  0  0
  7  9  2  0  0  0  0
  5  7  1  0  0  0  0
 10  8  1  6  0  0  0
 10 11  1  0  0  0  0
 11 14  1  0  0  0  0
 13 12  1  0  0  0  0
 12 10  1  0  0  0  0
 13 14  2  0  0  0  0
 14 15  1  0  0  0  0
 15 16  2  0  0  0  0
 16 17  1  0  0  0  0
 17 18  2  0  0  0  0
 18 13  1  0  0  0  0
 16 19  1  0  0  0  0
 19 20  1  0  0  0  0
 20 21  1  0  0  0  0
 21 22  1  0  0  0  0
 22 23  1  0  0  0  0
 23 24  2  0  0  0  0
 24 25  1  0  0  0  0
 25 21  2  0  0  0  0
 23 26  1  0  0  0  0
 26 27  1  0  0  0  0
 26 28  1  0  0  0  0
 19 29  2  0  0  0  0
 19 30  2  0  0  0  0
  4 31  1  0  0  0  0
 31 32  1  0  0  0  0
 32 33  1  0  0  0  0
  2 34  1  0  0  0  0
 34 35  1  0  0  0  0
 34 36  1  0  0  0  0
 34 37  1  0  0  0  0
M  END
>  <ID_NEW>
CPDPP3191

>  <pEC50>
7.309422774669826

$$$$

  SciTegic12180813072D

 33 36  0  0  0  0            999 V2000
    0.1049    2.6814    0.0000 N   0  0
    0.6843    2.3434    0.0000 C   0  0
    0.8229    1.6787    0.0000 N   0  0
    1.4893    1.6068    0.0000 N   0  0
    1.7690    2.2153    0.0000 C   0  0
    1.2734    2.6746    0.0000 S   0  0
    2.4299    2.3468    0.0000 C   0  0
    2.8667    1.8409    0.0000 C   0  0
    2.6499    2.9761    0.0000 C   0  0
   -1.2424    2.6986    0.0000 C   0  0
   -0.5737    2.6809    0.0000 S   0  0
   -0.5760    2.0193    0.0000 O   0  0
   -0.5563    3.3518    0.0000 O   0  0
   -2.2660    2.1394    0.0000 C   0  0
   -1.5931    2.1227    0.0000 C   0  0
   -1.5637    3.2870    0.0000 C   0  0
   -2.2400    3.2996    0.0000 C   0  0
   -2.5867    2.7275    0.0000 C   0  0
   -3.6143    2.1783    0.0000 C   0  0
   -4.2859    2.1900    0.0000 N   0  0
   -2.9104    3.3227    0.0000 C   0  0
   -3.2593    2.7476    0.0000 C   0  0
   -3.9187    2.9074    0.0000 C   0  0
   -3.9688    3.5758    0.0000 C   0  0
   -3.3524    3.8310    0.0000 C   0  0
   -4.6276    1.6169    0.0000 C   0  0
   -4.3013    1.0300    0.0000 C   0  0
   -4.6437    0.4573    0.0000 C   0  0
   -5.3229    0.4688    0.0000 C   0  0
   -5.6440    1.0584    0.0000 C   0  0
   -5.2960    1.6321    0.0000 N   0  0
   -5.6710   -0.1035    0.0000 Cl  0  0
   -3.6296    1.0205    0.0000 Cl  0  0
 15 10  1  0
 10 16  2  0
 16 17  1  0
 18 22  1  0
 22 19  1  0
 19 20  1  0
 21 22  1  0
 22 23  1  0
 23 24  1  0
 24 25  1  0
 25 21  1  0
 10 11  1  0
 11  1  1  0
 11 12  2  0
 11 13  2  0
 17 18  2  0
 18 14  1  0
 20 26  1  0
 26 27  2  0
 27 28  1  0
 28 29  2  0
 29 30  1  0
 30 31  2  0
 31 26  1  0
 29 32  1  0
 27 33  1  0
  1  2  1  0
  2  3  2  0
  3  4  1  0
  4  5  2  0
  5  6  1  0
  6  2  1  0
  5  7  1  0
  7  8  1  0
  7  9  1  0
 14 15  2  0
M  END
>  <ID_NEW>
CPDPP3192

>  <pEC50>
7.298192254851241

$$$$

  SciTegic12180813072D

 34 36  0  0  0  0            999 V2000
   -2.5036    2.9960    0.0000 C   0  0
   -2.9287    3.7086    0.0000 N   0  0
   -3.7506    3.7004    0.0000 C   0  0
   -4.1595    2.9785    0.0000 C   0  0
   -3.7359    2.2654    0.0000 C   0  0
   -2.9075    2.2758    0.0000 C   0  0
   -2.4880    1.5644    0.0000 Cl  0  0
   -4.9963    2.9651    0.0000 C   0  0
   -5.8308    2.9517    0.0000 F   0  0
   -5.0050    3.7996    0.0000 F   0  0
   -4.9837    2.1255    0.0000 F   0  0
   -1.6794    3.0067    0.0000 N   0  0
    3.6417    1.4309    0.0000 C   0  0
    4.2599    1.5142    0.0000 S   0  0
    3.5318    0.8259    0.0000 N   0  0
    4.0804    0.5305    0.0000 N   0  0
    4.5252    0.9585    0.0000 C   0  0
    5.1451    0.8506    0.0000 C   0  0
    5.5492    1.3230    0.0000 C   0  0
    5.3605    0.2672    0.0000 C   0  0
    2.3543    1.8331    0.0000 S   0  0
    2.3527    2.6401    0.0000 O   0  0
    3.1771    1.8344    0.0000 N   0  0
    2.3544    1.0222    0.0000 O   0  0
    1.5269    1.8298    0.0000 C   0  0
    0.2928    1.1220    0.0000 C   0  0
    1.1202    1.1281    0.0000 C   0  0
    1.1072    2.5260    0.0000 C   0  0
    0.2768    2.5158    0.0000 C   0  0
   -0.1261    1.8136    0.0000 C   0  0
   -0.9541    1.8050    0.0000 C   0  0
   -1.7780    1.8004    0.0000 C   0  0
   -0.9452    0.9965    0.0000 C   0  0
   -0.9602    2.6159    0.0000 C   0  0
  1  2  2  0
  2  3  1  0
  3  4  2  0
 13 14  1  0
 14 17  1  0
 16 15  1  0
 15 13  2  0
 26 27  2  0
 27 25  1  0
 25 28  2  0
 28 29  1  0
 29 30  2  0
 30 26  1  0
 31 32  1  0
 31 33  1  0
 30 31  1  0
 34 12  1  0
 31 34  1  0
 21 25  1  0
 21 24  2  0
 21 22  2  0
 21 23  1  0
 16 17  2  0
 17 18  1  0
 18 19  1  0
 18 20  1  0
 23 13  1  0
  4  5  1  0
  5  6  2  0
  6  1  1  0
  6  7  1  0
  8  9  1  0
  8 10  1  0
  8 11  1  0
  4  8  1  0
 12  1  1  0
M  END
>  <ID_NEW>
CPDPP3193

>  <pEC50>
7.269487364856242

$$$$

  SciTegic12180813032D

 39 43  0  0  0  0            999 V2000
   -3.4476   -1.9071    0.0000 C   0  0
   -4.2221   -2.3308    0.0000 C   0  0
   -4.2427   -3.2139    0.0000 O   0  0
   -5.0173   -3.6376    0.0000 C   0  0
   -3.4547   -1.0214    0.0000 N   0  0
   -1.1556    0.3000    0.0000 C   0  0
   -1.1567   -0.5856    0.0000 C   0  0
   -0.3919   -1.0277    0.0000 C   0  0
    0.3745   -0.5852    0.0000 C   0  0
    0.3717    0.3037    0.0000 C   0  0
   -0.3937    0.7420    0.0000 C   0  0
   -1.9215   -1.0268    0.0000 C   0  0
   -2.6899   -0.5803    0.0000 C   0  0
    1.1346    0.7481    0.0000 C   0  0
    1.1397   -1.0257    0.0000 C   0  0
   -4.9845    2.4704    0.0000 C   0  0
   -5.7590    2.0269    0.0000 C   0  0
   -5.7531    1.1389    0.0000 C   0  0
   -4.2160    2.0327    0.0000 C   0  0
   -4.2108    1.1460    0.0000 C   0  0
   -4.9774    0.6937    0.0000 C   0  0
   -4.7865   -0.1758    0.0000 N   0  0
   -3.9014   -0.2597    0.0000 C   0  0
   -3.5464    0.5563    0.0000 S   0  0
   -4.9866    3.3537    0.0000 C   0  0
   -4.2189    3.7988    0.0000 F   0  0
   -5.7562    3.7900    0.0000 F   0  0
   -4.1267    3.1254    0.0000 F   0  0
    1.9420    0.3948    0.0000 N   0  0
    2.5302    1.0532    0.0000 O   0  0
    2.0858    1.8162    0.0000 C   0  0
    1.2230    1.6291    0.0000 N   0  0
    2.4418    2.6242    0.0000 O   0  0
   -5.0376   -4.5203    0.0000 C   0  0
   -5.8112   -4.9402    0.0000 C   0  0
   -5.8319   -5.8220    0.0000 C   0  0
   -5.0772   -6.2819    0.0000 C   0  0
   -4.2999   -5.8535    0.0000 C   0  0
   -4.2830   -4.9730    0.0000 C   0  0
  7  8  1  0
  8  9  2  0
  9 10  1  0
 10 11  2  0
 11  6  1  0
  7 12  1  0
 12 13  1  0
 13  5  1  0
 10 14  1  0
  9 15  1  0
 16 17  2  0
 17 18  1  0
 18 21  2  0
 20 19  2  0
 19 16  1  0
 20 21  1  0
 21 22  1  0
 22 23  2  0
 23 24  1  0
 24 20  1  0
 16 25  1  0
 25 26  1  0
 25 27  1  0
 25 28  1  0
 23  5  1  0
  1  2  1  0
  2  3  1  0
  3  4  1  0
  1  5  1  0
  6  7  2  0
 14 29  2  0
 29 30  1  0
 30 31  1  0
 31 32  1  0
 32 14  1  0
 31 33  2  0
  4 34  1  0
 34 35  2  0
 35 36  1  0
 36 37  2  0
 37 38  1  0
 38 39  2  0
 39 34  1  0
M  END
>  <ID_NEW>
CPDPP3194

>  <pEC50>
7.268857841724978

$$$$

  SciTegic12180813082D

 31 33  0  0  0  0            999 V2000
   -0.7821    2.6612    0.0000 C   0  0
   -1.4588    2.1900    0.0000 S   0  0
   -2.1151    2.6921    0.0000 C   0  0
   -1.8499    3.4671    0.0000 C   0  0
   -1.0258    3.4532    0.0000 C   0  0
   -2.9278    2.4613    0.0000 C   0  0
   -3.5290    3.0323    0.0000 C   0  0
   -4.3193    2.7909    0.0000 N   0  0
    0.0020    2.3923    0.0000 S   0  0
    0.7266    1.9820    0.0000 O   0  0
    0.4100    3.1169    0.0000 N   0  0
   -0.4082    1.6676    0.0000 O   0  0
    1.2349    3.1258    0.0000 C   0  0
    1.7271    2.4646    0.0000 S   0  0
    1.7128    3.7993    0.0000 N   0  0
    2.5001    3.5530    0.0000 N   0  0
    2.5101    2.7317    0.0000 C   0  0
    3.1839    2.2558    0.0000 C   0  0
    3.1413    1.5012    0.0000 C   0  0
    3.8255    2.5128    0.0000 C   0  0
   -4.5051    1.9871    0.0000 C   0  0
   -5.2954    1.7477    0.0000 N   0  0
   -5.4814    0.9447    0.0000 C   0  0
   -4.8778    0.3810    0.0000 C   0  0
   -4.0855    0.6257    0.0000 C   0  0
   -3.9032    1.4282    0.0000 C   0  0
   -3.1150    1.6716    0.0000 Cl  0  0
   -5.0588   -0.4265    0.0000 C   0  0
   -5.2269   -1.1581    0.0000 F   0  0
   -5.8321   -0.8077    0.0000 F   0  0
   -4.5294   -1.1070    0.0000 F   0  0
 18 20  1  0
  5  1  2  0
  3  4  2  0
  2  3  1  0
  4  5  1  0
  1  2  1  0
  3  6  1  0
  6  7  1  0
  7  8  1  0
  1  9  1  0
  9 10  2  0
  9 11  1  0
  9 12  2  0
 11 13  1  0
 13 14  1  0
 14 17  1  0
 16 15  1  0
 15 13  2  0
 16 17  2  0
 17 18  1  0
 18 19  1  0
  8 21  1  0
 21 22  2  0
 22 23  1  0
 23 24  2  0
 24 25  1  0
 25 26  2  0
 26 21  1  0
 26 27  1  0
 28 29  1  0
 28 30  1  0
 28 31  1  0
 24 28  1  0
M  END
>  <ID_NEW>
CPDPP3195

>  <pEC50>
7.263169789301351

$$$$

  SciTegic12180813042D

 31 33  0  0  0  0            999 V2000
   -2.3221    2.8601    0.0000 C   0  0
   -1.7518    3.2249    0.0000 S   0  0
   -1.3856    2.6554    0.0000 O   0  0
   -2.1181    3.7981    0.0000 O   0  0
   -1.1798    3.5943    0.0000 N   0  0
   -4.6664    2.1654    0.0000 C   0  0
   -4.0780    1.8289    0.0000 C   0  0
   -3.4916    2.1716    0.0000 C   0  0
   -2.9025    1.8339    0.0000 C   0  0
   -2.3165    2.1801    0.0000 C   0  0
   -2.9155    3.1922    0.0000 C   0  0
   -3.4985    2.8478    0.0000 C   0  0
   -0.5744    3.2853    0.0000 C   0  0
   -0.4737    2.6122    0.0000 S   0  0
    0.1992    2.5070    0.0000 C   0  0
    0.5082    3.1123    0.0000 N   0  0
    0.0256    3.5924    0.0000 N   0  0
    0.5060    1.9005    0.0000 C   0  0
    0.1348    1.3301    0.0000 C   0  0
    1.1840    1.8644    0.0000 C   0  0
   -5.8269    0.1218    0.0000 C   0  0
   -5.2397   -0.2190    0.0000 C   0  0
   -5.2468    1.1394    0.0000 C   0  0
   -5.8313    0.7976    0.0000 N   0  0
   -4.6549    0.8048    0.0000 C   0  0
   -4.6543    0.1205    0.0000 C   0  0
   -5.2529    1.8185    0.0000 N   0  0
   -5.2399   -0.8981    0.0000 C   0  0
   -5.2385   -1.5181    0.0000 F   0  0
   -5.7885   -1.3484    0.0000 F   0  0
   -4.6883   -1.3487    0.0000 F   0  0
  9 10  1  0
 10  1  2  0
  1 11  1  0
 11 12  2  0
 12  8  1  0
  5 13  1  0
 13 14  1  0
 14 15  1  0
 15 16  2  0
 16 17  1  0
 17 13  2  0
 15 18  1  0
 18 19  1  0
 18 20  1  0
  1  2  1  0
  2  3  2  0
  2  4  2  0
  2  5  1  0
 21 22  2  0
 22 26  1  0
 25 23  1  0
 23 24  2  0
 24 21  1  0
 25 26  2  0
 23 27  1  0
 27  6  1  0
  6  7  1  0
  7  8  1  0
  8  9  2  0
 22 28  1  0
 28 29  1  0
 28 30  1  0
 28 31  1  0
M  END
>  <ID_NEW>
CPDPP3196

>  <pEC50>
7.2559538730769

$$$$

  SciTegic12180812582D

 39 43  0  0  0  0            999 V2000
    0.9552    0.9929    0.0000 C   0  0
    0.2049    0.8415    0.0000 C   0  0
   -0.0435    0.1127    0.0000 C   0  0
    0.4626   -0.4648    0.0000 C   0  0
    1.2170   -0.3134    0.0000 C   0  0
    1.4654    0.4155    0.0000 C   0  0
   -0.7937   -0.0346    0.0000 O   0  0
    1.7231   -0.8908    0.0000 Cl  0  0
    2.2156    0.5628    0.0000 C   0  0
   -4.4061   -0.6081    0.0000 C   0  0
   -4.9256   -1.1725    0.0000 C   0  0
   -4.6959   -1.9048    0.0000 C   0  0
   -3.9465   -2.0771    0.0000 C   0  0
   -3.4269   -1.5086    0.0000 C   0  0
   -3.6567   -0.7762    0.0000 C   0  0
   -5.2198   -2.4692    0.0000 C   0  0
   -3.1369   -0.2161    0.0000 C   0  0
   -2.3683   -0.3044    0.0000 S   0  0
   -2.0459    0.3955    0.0000 C   0  0
   -2.6148    0.9175    0.0000 C   0  0
   -3.2855    0.5384    0.0000 N   0  0
   -2.5241    1.6822    0.0000 C   0  0
   -1.2998    0.5428    0.0000 C   0  0
   -4.8123   -3.1167    0.0000 F   0  0
   -5.8302   -2.9358    0.0000 F   0  0
   -5.7359   -1.9009    0.0000 F   0  0
   -4.4625    2.2954    0.0000 C   0  0
   -3.8480    1.8367    0.0000 C   0  0
   -3.1385    2.1416    0.0000 N   0  0
   -3.0477    2.9019    0.0000 C   0  0
   -3.6705    3.3590    0.0000 C   0  0
   -4.3717    3.0557    0.0000 C   0  0
   -4.5750    3.8000    0.0000 F   0  0
   -5.1417    3.0584    0.0000 F   0  0
    2.7760    0.0475    0.0000 N   0  0
    3.4440    0.4194    0.0000 O   0  0
    3.2967    1.1696    0.0000 C   0  0
    2.5377    1.2613    0.0000 N   0  0
    3.8170    1.7298    0.0000 O   0  0
  5  8  1  0
  6  9  1  0
  1  2  2  0
  2  3  1  0
  3  4  2  0
 27 28  1  0
 27 32  1  0
 28 29  1  0
 29 30  1  0
 30 31  1  0
 31 32  1  0
 22 29  1  0
  4  5  1  0
  5  6  2  0
 19 23  1  0
 12 16  1  0
 23  7  1  0
 12 13  2  0
 15 17  1  0
 16 24  1  0
 17 18  1  0
 16 25  1  0
 16 26  1  0
 13 14  1  0
 11 12  1  0
 14 15  2  0
 32 33  1  0
 32 34  1  0
 18 19  1  0
 19 20  2  0
 20 21  1  0
 21 17  2  0
 15 10  1  0
 20 22  1  0
 10 11  2  0
  6  1  1  0
  3  7  1  0
  9 35  2  0
 35 36  1  0
 36 37  1  0
 37 38  1  0
 38  9  1  0
 37 39  2  0
M  END
>  <ID_NEW>
CPDPP3197

>  <pEC50>
7.244319046917954

$$$$

  SciTegic12180813032D

 37 40  0  0  0  0            999 V2000
   12.0048  -10.3215    0.0000 C   0  0
   12.8296  -10.3056    0.0000 C   0  0
   10.6347   -7.1648    0.0000 C   0  0
   11.5092   -6.9990    0.0000 C   0  0
   11.8005   -6.1553    0.0000 C   0  0
   10.3385   -5.6550    0.0000 C   0  0
   10.0524   -6.4946    0.0000 C   0  0
   11.2130   -5.4914    0.0000 C   0  0
    9.7600   -4.9880    0.0000 Cl  0  0
   11.4999   -4.6559    0.0000 C   0  0
   12.3407   -4.3963    0.0000 N   0  0
   12.3554   -3.5130    0.0000 O   0  0
   11.5198   -3.2261    0.0000 C   0  0
   10.9889   -3.9322    0.0000 N   0  0
   11.2608   -2.3815    0.0000 O   0  0
   10.3428   -8.0057    0.0000 O   0  0
   11.3347  -10.8029    0.0000 O   0  0
    6.5869  -10.6178    0.0000 C   0  0
    6.1630  -11.3283    0.0000 C   0  0
    6.5663  -12.0486    0.0000 C   0  0
    7.3934  -12.0595    0.0000 C   0  0
    7.8154  -11.3442    0.0000 C   0  0
    7.4097  -10.6269    0.0000 C   0  0
    8.6404  -11.3518    0.0000 C   0  0
    9.1162  -12.0214    0.0000 N   0  0
    9.9040  -11.7736    0.0000 C   0  0
    9.9103  -10.9474    0.0000 C   0  0
    9.1263  -10.6875    0.0000 S   0  0
   10.5673  -12.2641    0.0000 C   0  0
   10.5827  -10.4638    0.0000 C   0  0
    5.3381  -11.3170    0.0000 C   0  0
    4.9157  -12.0257    0.0000 F   0  0
    4.9355  -10.5969    0.0000 F   0  0
    5.9133  -11.9083    0.0000 F   0  0
   10.5005   -9.6429    0.0000 C   0  0
   11.1703   -9.1612    0.0000 C   0  0
   11.0881   -8.3403    0.0000 C   0  0
  1  2  1  0
  3  4  2  0
  6  7  2  0
  7  3  1  0
  4  5  1  0
  5  8  2  0
  6  8  1  0
  6  9  1  0
  8 10  1  0
 10 11  2  0
 11 12  1  0
 12 13  1  0
 13 14  1  0
 14 10  1  0
 13 15  2  0
  3 16  1  0
 20 21  2  0
 22 24  1  0
 25 26  1  0
 21 22  1  0
 19 20  1  0
 22 23  2  0
 24 25  2  0
 26 27  2  0
 27 28  1  0
 28 24  1  0
 23 18  1  0
 27 30  1  0
 18 19  2  0
 26 29  1  0
 19 31  1  0
 31 32  1  0
 31 33  1  0
 31 34  1  0
 30 17  1  0
 30 35  1  0
 35 36  1  0
 36 37  1  0
 16 37  1  0
 17  1  1  0
M  END
>  <ID_NEW>
CPDPP3198

>  <pEC50>
7.241575540566034

$$$$

  SciTegic12180813002D

 41 45  0  0  0  0            999 V2000
   -0.4806    2.2376    0.0000 C   0  0
   -0.4818    1.6185    0.0000 C   0  0
    0.0456    1.3223    0.0000 C   0  0
    0.5745    1.6190    0.0000 C   0  0
    0.5716    2.2412    0.0000 C   0  0
    0.0438    2.5253    0.0000 C   0  0
    1.0824    2.5361    0.0000 C   0  0
    1.6211    2.2463    0.0000 N   0  0
    1.0918    1.3237    0.0000 F   0  0
   -2.8795    0.7834    0.0000 C   0  0
   -3.4658    0.6943    0.0000 C   0  0
   -2.5612    1.3064    0.0000 S   0  0
   -2.4882    0.3298    0.0000 N   0  0
   -3.6979    0.1575    0.0000 C   0  0
   -3.8304    1.1824    0.0000 C   0  0
   -1.9704    1.1619    0.0000 C   0  0
   -1.9374    0.5421    0.0000 C   0  0
   -4.2857    0.0773    0.0000 C   0  0
   -4.4292    1.0949    0.0000 C   0  0
   -1.5221    1.5462    0.0000 C   0  0
   -1.4297    0.2060    0.0000 C   0  0
   -4.6527    0.5603    0.0000 C   0  0
   -0.9666    1.3571    0.0000 O   0  0
   -5.2317    0.4924    0.0000 C   0  0
   -5.8302    0.4330    0.0000 F   0  0
   -5.1897   -0.1053    0.0000 F   0  0
   -5.2857    1.0710    0.0000 F   0  0
    1.0795    3.1374    0.0000 N   0  0
    1.6819    3.2407    0.0000 C   0  0
    2.0667    2.7792    0.0000 O   0  0
    1.8974    3.7982    0.0000 O   0  0
   -1.4706   -0.4034    0.0000 N   0  0
   -0.9515   -0.7514    0.0000 C   0  0
   -0.9583   -1.3750    0.0000 C   0  0
   -1.5035   -1.6794    0.0000 C   0  0
   -1.5106   -2.3023    0.0000 C   0  0
   -0.9736   -2.6206    0.0000 C   0  0
   -0.4284   -2.3115    0.0000 C   0  0
   -0.4240   -1.6895    0.0000 C   0  0
   -0.9797   -3.2456    0.0000 O   0  0
   -1.5240   -3.5529    0.0000 C   0  0
  4  5  1  0
  5  6  2  0
  6  1  1  0
  5  7  1  0
  7  8  2  0
  4  9  1  0
 10 11  1  0
 10 12  1  0
 10 13  2  0
 11 14  1  0
 11 15  2  0
 12 16  1  0
 13 17  1  0
 14 18  2  0
 15 19  1  0
 16 20  1  0
 17 21  1  0
 18 22  1  0
 20 23  1  0
 22 24  1  0
 24 25  1  0
 24 26  1  0
 24 27  1  0
 16 17  2  0
 19 22  2  0
  2 23  1  0
  7 28  1  0
 28 29  1  0
  8 30  1  0
 29 30  1  0
 29 31  2  0
 21 32  1  0
  1  2  2  0
  2  3  1  0
  3  4  2  0
 32 33  1  0
 33 34  1  0
 34 35  2  0
 35 36  1  0
 36 37  2  0
 37 38  1  0
 38 39  2  0
 39 34  1  0
 37 40  1  0
 40 41  1  0
M  END
>  <ID_NEW>
CPDPP3199

>  <pEC50>
7.221063220236456

$$$$

  SciTegic12180812582D

 42 46  0  0  0  0            999 V2000
   -3.5122    1.4506    0.0000 C   0  0
   -3.9831    1.3918    0.0000 C   0  0
   -3.2616    1.8641    0.0000 S   0  0
   -3.2005    1.0993    0.0000 N   0  0
   -4.1606    0.9589    0.0000 C   0  0
   -4.2542    1.7734    0.0000 C   0  0
   -2.7955    1.7550    0.0000 C   0  0
   -2.7666    1.2664    0.0000 C   0  0
   -4.6246    0.9011    0.0000 C   0  0
   -4.7347    1.7076    0.0000 C   0  0
   -2.4391    2.0620    0.0000 C   0  0
   -2.3697    1.0021    0.0000 C   0  0
   -4.9118    1.2809    0.0000 C   0  0
   -1.9977    1.9066    0.0000 O   0  0
   -5.3723    1.2213    0.0000 C   0  0
   -5.8333    1.1848    0.0000 F   0  0
   -5.3303    0.7589    0.0000 F   0  0
   -5.4135    1.6853    0.0000 F   0  0
   -2.3969    0.5263    0.0000 N   0  0
   -2.8289    0.3162    0.0000 C   0  0
   -2.8578   -0.1600    0.0000 C   0  0
   -2.4672   -0.4531    0.0000 C   0  0
   -2.0331   -0.2138    0.0000 C   0  0
   -2.0021    0.2644    0.0000 C   0  0
   -1.6424    2.2112    0.0000 C   0  0
   -1.2014    2.0548    0.0000 C   0  0
   -0.8463    2.3590    0.0000 C   0  0
   -0.9323    2.8195    0.0000 C   0  0
   -1.3766    2.9743    0.0000 C   0  0
   -1.7298    2.6691    0.0000 C   0  0
   -0.4054    2.2035    0.0000 O   0  0
   -0.3195    1.7439    0.0000 C   0  0
   -0.5770    3.1249    0.0000 C   0  0
   -0.0016    3.0491    0.0000 N   0  0
   -0.5639    3.5770    0.0000 N   0  0
   -0.0920    3.7991    0.0000 O   0  0
    0.2458    3.4542    0.0000 C   0  0
    0.7140    3.6403    0.0000 O   0  0
   -2.4750   -0.9375    0.0000 C   0  0
   -2.8984   -1.1729    0.0000 F   0  0
   -2.0594   -1.1865    0.0000 F   0  0
   -2.9409   -0.8046    0.0000 F   0  0
 22 39  1  0
  8 12  1  0
  9 13  1  0
 11 14  1  0
 13 15  1  0
 15 16  1  0
 15 17  1  0
 15 18  1  0
  7  8  2  0
 10 13  2  0
 12 19  1  0
 19 20  1  0
 19 24  1  0
 20 21  1  0
 21 22  1  0
 22 23  1  0
 23 24  1  0
 14 25  1  0
 25 26  2  0
 26 27  1  0
 27 28  2  0
 28 29  1  0
  1  2  1  0
 29 30  2  0
 30 25  1  0
  1  3  1  0
 27 31  1  0
  1  4  2  0
 31 32  1  0
  2  5  1  0
 28 33  1  0
  2  6  2  0
 33 34  1  0
  3  7  1  0
 33 35  2  0
  4  8  1  0
 35 36  1  0
  5  9  2  0
 36 37  1  0
  6 10  1  0
 37 38  2  0
 37 34  1  0
  7 11  1  0
 39 40  1  0
 39 41  1  0
 39 42  1  0
M  END
>  <ID_NEW>
CPDPP3200

>  <pEC50>
7.218047040359895

$$$$

  SciTegic12180813072D

 35 38  0  0  0  0            999 V2000
   -4.6155    2.0360    0.0000 C   0  0
   -4.2990    1.4861    0.0000 C   0  0
   -4.2967    2.5878    0.0000 C   0  0
   -3.6579    1.4867    0.0000 C   0  0
   -3.6567    2.5904    0.0000 C   0  0
   -3.3358    2.0339    0.0000 C   0  0
   -3.3325    0.9288    0.0000 F   0  0
   -2.6952    2.0349    0.0000 C   0  0
   -2.3753    1.4849    0.0000 O   0  0
    1.4601    3.5496    0.0000 N   0  0
    2.0103    3.2282    0.0000 C   0  0
    2.1447    2.5969    0.0000 N   0  0
    2.7778    2.5291    0.0000 N   0  0
    3.0408    3.1043    0.0000 C   0  0
    2.5702    3.5428    0.0000 S   0  0
   -0.7584    2.9087    0.0000 C   0  0
   -0.7584    2.2713    0.0000 C   0  0
   -1.3628    3.1061    0.0000 C   0  0
   -0.2100    3.2323    0.0000 C   0  0
   -1.3664    2.0775    0.0000 C   0  0
   -0.2121    1.9512    0.0000 C   0  0
   -1.7384    2.5876    0.0000 C   0  0
    0.3426    2.9099    0.0000 C   0  0
    0.3452    2.2734    0.0000 C   0  0
   -2.3763    2.5861    0.0000 N   0  0
    0.9037    3.2326    0.0000 S   0  0
    1.2235    2.6717    0.0000 O   0  0
    0.5830    3.7844    0.0000 O   0  0
   -5.2509    2.0368    0.0000 C   0  0
   -5.8297    2.0348    0.0000 F   0  0
   -5.6704    2.5493    0.0000 F   0  0
   -5.6717    1.5199    0.0000 F   0  0
    3.6661    3.2284    0.0000 C   0  0
    4.0862    2.7489    0.0000 C   0  0
    3.8713    3.8320    0.0000 C   0  0
 26 10  1  0
 26 27  2  0
 26 28  2  0
 23 26  1  0
 10 11  1  0
 11 12  2  0
 12 13  1  0
 13 14  2  0
 14 15  1  0
 15 11  1  0
 16 17  2  0
 16 18  1  0
 16 19  1  0
 17 20  1  0
 17 21  1  0
 18 22  1  0
 19 23  2  0
 21 24  2  0
 22 25  1  0
 20 22  1  0
 23 24  1  0
  8  9  2  0
  5  6  1  0
  1  2  2  0
  1  3  1  0
  2  4  1  0
  3  5  2  0
  4  6  2  0
  4  7  1  0
  6  8  1  0
 25  8  1  0
  1 29  1  0
 29 30  1  0
 29 31  1  0
 29 32  1  0
 14 33  1  0
 33 34  1  0
 33 35  1  0
M  END
>  <ID_NEW>
CPDPP3201

>  <pEC50>
7.214556684763047

$$$$

  SciTegic12180812322D

 36 38  0  0  0  0            999 V2000
    5.0027   -5.7602    0.0000 N   0  0
    5.7152   -5.3436    0.0000 C   0  0
    6.2985   -5.9269    0.0000 C   0  0
    6.8819   -5.3394    0.0000 C   0  0
    7.6827   -5.5538    0.0000 C   0  0
    8.2657   -4.9671    0.0000 C   0  0
    8.0488   -4.1672    0.0000 C   0  0
    7.2435   -3.9572    0.0000 C   0  0
    6.6639   -4.5455    0.0000 C   0  0
    8.6319   -3.5769    0.0000 S   0  0
    8.4152   -2.7769    0.0000 O   0  0
    9.0402   -4.2894    0.0000 O   0  0
    9.3444   -3.1602    0.0000 N   0  0
   10.0569   -3.5727    0.0000 C   0  0
   10.7694   -3.1561    0.0000 S   0  0
   11.4819   -3.5686    0.0000 C   0  0
   10.2694   -4.3686    0.0000 N   0  0
   11.2652   -4.3644    0.0000 N   0  0
   12.3069   -3.5686    0.0000 C   0  0
   13.0194   -3.1519    0.0000 C   0  0
   12.8902   -4.1519    0.0000 C   0  0
    0.8970   -7.2025    0.0000 C   0  0
    1.7176   -6.7258    0.0000 C   0  0
    0.2232   -6.5342    0.0000 F   0  0
    1.4464   -7.9815    0.0000 F   0  0
    0.1733   -7.8179    0.0000 F   0  0
    2.5410   -7.1990    0.0000 C   0  0
    1.7149   -5.7758    0.0000 C   0  0
    3.3615   -6.7180    0.0000 C   0  0
    2.5313   -5.2948    0.0000 C   0  0
    3.3588   -5.7680    0.0000 C   0  0
    4.1752   -5.2871    0.0000 C   0  0
    4.1724   -4.3371    0.0000 O   0  0
    4.1848   -7.1911    0.0000 O   0  0
    4.1917   -8.1411    0.0000 C   0  0
    5.0150   -8.6102    0.0000 C   0  0
 14 15  1  0
 15 16  1  0
 14 17  2  0
 16 18  2  0
 17 18  1  0
 16 19  1  0
 19 20  1  0
 19 21  1  0
  1  2  1  0
  2  3  1  0
  3  4  1  0
  4  5  2  0
  5  6  1  0
  6  7  2  0
  7  8  1  0
  8  9  2  0
  9  4  1  0
  7 10  1  0
 10 11  2  0
 10 12  2  0
 10 13  1  0
 13 14  1  0
 23 27  2  0
 23 28  1  0
 27 29  1  0
 28 30  2  0
 29 31  2  0
 31 32  1  0
 32 33  2  0
 32  1  1  0
 30 31  1  0
 22 23  1  0
 22 24  1  0
 29 34  1  0
 22 25  1  0
 34 35  1  0
 22 26  1  0
 35 36  1  0
M  END
>  <ID_NEW>
CPDPP3202

>  <pEC50>
7.209207010770998

$$$$

  SciTegic12180813012D

 30 32  0  0  0  0            999 V2000
   -3.8132    1.2574    0.0000 C   0  0
   -4.6352    1.3370    0.0000 C   0  0
   -3.4801    1.9960    0.0000 S   0  0
   -4.8099    2.1435    0.0000 C   0  0
   -4.0961    2.5568    0.0000 C   0  0
   -5.5774    2.4758    0.0000 Br  0  0
   -4.0998    3.3871    0.0000 C   0  0
   -3.3833    3.7975    0.0000 N   0  0
   -4.8159    3.7959    0.0000 O   0  0
   -1.9460    3.7982    0.0000 C   0  0
   -1.2284    3.3799    0.0000 C   0  0
   -1.2256    2.5574    0.0000 C   0  0
   -0.5130    2.1432    0.0000 C   0  0
    0.2035    2.5581    0.0000 C   0  0
    0.2029    3.3833    0.0000 C   0  0
   -0.5145    3.7937    0.0000 C   0  0
    0.9249    2.1373    0.0000 S   0  0
    0.5030    1.4165    0.0000 N   0  0
    1.6439    1.7157    0.0000 O   0  0
    1.3444    2.8550    0.0000 O   0  0
    0.9129    0.6948    0.0000 C   0  0
    0.6618   -0.0877    0.0000 S   0  0
    1.3311   -0.5726    0.0000 C   0  0
    1.9945   -0.0918    0.0000 N   0  0
    1.7388    0.6885    0.0000 N   0  0
    1.3366   -1.3975    0.0000 C   0  0
    0.6218   -1.8102    0.0000 C   0  0
    2.0528   -1.8096    0.0000 C   0  0
   -2.6657    3.3874    0.0000 C   0  0
   -3.3995    0.5436    0.0000 C   0  0
  1  2  2  0
  1  3  1  0
  2  4  1  0
  3  5  1  0
  4  6  1  0
  5  7  1  0
  7  8  1  0
  7  9  2  0
  4  5  2  0
 13 14  2  0
 14 15  1  0
 15 16  2  0
 16 11  1  0
 17 18  1  0
 17 19  2  0
 14 17  1  0
 17 20  2  0
 18 21  1  0
 21 22  1  0
 22 23  1  0
 23 24  2  0
 24 25  1  0
 25 21  2  0
 23 26  1  0
 26 27  1  0
 26 28  1  0
 10 11  1  0
 11 12  2  0
 12 13  1  0
 10 29  1  0
 29  8  1  0
  1 30  1  0
M  END
>  <ID_NEW>
CPDPP3203

>  <pEC50>
7.200648871019573

$$$$

  SciTegic12180813072D

 37 40  0  0  0  0            999 V2000
    1.9852    3.2823    0.0000 C   0  0
    1.9884    2.6424    0.0000 S   0  0
    2.5970    3.4872    0.0000 N   0  0
    2.9721    2.9778    0.0000 N   0  0
    2.6047    2.4531    0.0000 C   0  0
    2.8191    1.8451    0.0000 C   0  0
    2.4012    1.3612    0.0000 C   0  0
    3.4431    1.7297    0.0000 C   0  0
    1.4214    3.6025    0.0000 N   0  0
    0.8679    3.2740    0.0000 S   0  0
    0.3058    2.9445    0.0000 C   0  0
    0.5383    3.8310    0.0000 O   0  0
    1.1927    2.7114    0.0000 O   0  0
    0.3065    2.3047    0.0000 C   0  0
   -0.2494    3.2676    0.0000 C   0  0
   -0.2481    1.9814    0.0000 C   0  0
   -0.8041    2.3049    0.0000 C   0  0
   -0.8021    2.9443    0.0000 C   0  0
   -1.4126    3.1448    0.0000 C   0  0
   -1.7862    2.6279    0.0000 C   0  0
   -1.4117    2.1085    0.0000 C   0  0
    0.8699    1.9820    0.0000 Cl  0  0
   -2.4278    2.6341    0.0000 N   0  0
   -2.9795    2.9645    0.0000 C   0  0
   -3.5460    2.6427    0.0000 C   0  0
   -2.9739    3.6095    0.0000 O   0  0
   -4.1265    2.9035    0.0000 S   0  0
   -4.5559    2.4278    0.0000 C   0  0
   -4.2417    1.8765    0.0000 C   0  0
   -3.6163    2.0049    0.0000 C   0  0
   -3.1453    1.5699    0.0000 O   0  0
   -3.2868    0.9442    0.0000 C   0  0
   -2.8116    0.5087    0.0000 C   0  0
   -5.1919    2.4942    0.0000 C   0  0
   -5.8296    2.5641    0.0000 F   0  0
   -5.1274    3.1343    0.0000 F   0  0
   -5.2600    1.8587    0.0000 F   0  0
 10  9  1  0
 14 11  2  0
 11 15  1  0
 15 18  2  0
 17 16  2  0
 16 14  1  0
 17 18  1  0
 18 19  1  0
 19 20  1  0
 20 21  1  0
 21 17  1  0
 20 23  1  0
 14 22  1  0
 10 13  2  0
 11 10  1  0
 10 12  2  0
  2  5  1  0
  4  3  1  0
  3  1  2  0
  4  5  2  0
  5  6  1  0
  6  7  1  0
  6  8  1  0
  9  1  1  0
  1  2  1  0
 23 24  1  0
 24 25  1  0
 24 26  2  0
 25 27  1  0
 27 28  1  0
 28 29  2  0
 29 30  1  0
 30 25  2  0
 30 31  1  0
 31 32  1  0
 32 33  1  0
 28 34  1  0
 34 35  1  0
 34 36  1  0
 34 37  1  0
M  END
>  <ID_NEW>
CPDPP3204

>  <pEC50>
7.189764618254386

$$$$

  -MTS-   10172316532D 0   0.00000     0.00000     0

 35 38  0  0  0  0  0  0  0  0999 V2000
   -2.7000    2.0560    0.0000 N   0  0  0  0  0  0  0  0  0  0  0  0
   -3.3270    1.7760    0.0000 C   0  0  0  0  0  0  0  0  0  0  0  0
   -3.8820    2.1770    0.0000 N   0  0  0  0  0  0  0  0  0  0  0  0
   -4.5050    1.8940    0.0000 C   0  0  0  0  0  0  0  0  0  0  0  0
   -4.5750    1.2180    0.0000 C   0  0  0  0  0  0  0  0  0  0  0  0
   -4.0210    0.8180    0.0000 C   0  0  0  0  0  0  0  0  0  0  0  0
   -3.4000    1.0970    0.0000 C   0  0  0  0  0  0  0  0  0  0  0  0
   -5.2060    0.9340    0.0000 C   0  0  0  0  0  0  0  0  0  0  0  0
   -5.8320    0.6540    0.0000 F   0  0  0  0  0  0  0  0  0  0  0  0
   -5.4860    1.5650    0.0000 F   0  0  0  0  0  0  0  0  0  0  0  0
   -4.9220    0.3070    0.0000 F   0  0  0  0  0  0  0  0  0  0  0  0
   -2.8460    0.6970    0.0000 Cl  0  0  0  0  0  0  0  0  0  0  0  0
    1.0360    1.4440    0.0000 N   0  0  0  0  0  0  0  0  0  0  0  0
    1.6160    1.8060    0.0000 C   0  0  0  0  0  0  0  0  0  0  0  0
    2.2210    1.4900    0.0000 N   0  0  0  0  0  0  0  0  0  0  0  0
    2.7140    1.9660    0.0000 N   0  0  0  0  0  0  0  0  0  0  0  0
    2.4160    2.5710    0.0000 C   0  0  0  0  0  0  0  0  0  0  0  0
    1.7330    2.4790    0.0000 S   0  0  0  0  0  0  0  0  0  0  0  0
    2.7560    3.1660    0.0000 C   0  0  0  0  0  0  0  0  0  0  0  0
    3.4430    3.1720    0.0000 C   0  0  0  0  0  0  0  0  0  0  0  0
    2.4120    3.7590    0.0000 C   0  0  0  0  0  0  0  0  0  0  0  0
    0.4280    1.7640    0.0000 S   0  0  0  0  0  0  0  0  0  0  0  0
    0.7470    2.3720    0.0000 O   0  0  0  0  0  0  0  0  0  0  0  0
    0.1100    1.1570    0.0000 O   0  0  0  0  0  0  0  0  0  0  0  0
   -0.1830    2.0820    0.0000 C   0  0  0  0  0  0  0  0  0  0  0  0
   -0.8230    3.0750    0.0000 C   0  0  0  0  0  0  0  0  0  0  0  0
   -1.3990    2.7040    0.0000 C   0  0  0  0  0  0  0  0  0  0  0  0
   -0.2140    2.7680    0.0000 C   0  0  0  0  0  0  0  0  0  0  0  0
   -1.3690    2.0260    0.0000 C   0  0  0  0  0  0  0  0  0  0  0  0
   -0.7570    1.7140    0.0000 C   0  0  0  0  0  0  0  0  0  0  0  0
   -2.0070    3.0160    0.0000 C   0  0  1  0  0  0  0  0  0  0  0  0
   -2.6340    2.7370    0.0000 C   0  0  1  0  0  0  0  0  0  0  0  0
   -3.0910    3.2410    0.0000 C   0  0  0  0  0  0  0  0  0  0  0  0
   -2.7500    3.8300    0.0000 C   0  0  0  0  0  0  0  0  0  0  0  0
   -2.0810    3.6960    0.0000 C   0  0  0  0  0  0  0  0  0  0  0  0
  2  3  2  0  0  0  0
  3  4  1  0  0  0  0
  4  5  2  0  0  0  0
  5  6  1  0  0  0  0
 15 16  1  0  0  0  0
 13 22  1  0  0  0  0
 22 23  2  0  0  0  0
 22 24  2  0  0  0  0
 22 25  1  0  0  0  0
 25 30  1  0  0  0  0
 26 27  2  0  0  0  0
 26 28  1  0  0  0  0
 27 29  1  0  0  0  0
 28 25  2  0  0  0  0
 29 30  2  0  0  0  0
 31 27  1  1  0  0  0
 31 32  1  0  0  0  0
 32 33  1  0  0  0  0
 33 34  1  0  0  0  0
 34 35  1  0  0  0  0
 35 31  1  0  0  0  0
 32  1  1  6  0  0  0
 16 17  2  0  0  0  0
 17 18  1  0  0  0  0
 18 14  1  0  0  0  0
 17 19  1  0  0  0  0
 19 20  1  0  0  0  0
 19 21  1  0  0  0  0
 13 14  1  0  0  0  0
 14 15  2  0  0  0  0
  6  7  2  0  0  0  0
  7  2  1  0  0  0  0
  1  2  1  0  0  0  0
  8  9  1  0  0  0  0
  8 10  1  0  0  0  0
  8 11  1  0  0  0  0
  5  8  1  0  0  0  0
  7 12  1  0  0  0  0
V   31 M1
V   32 M1
M  END
>  <ID_NEW>
CPDPP3205

>  <pEC50>
7.181161773537091

$$$$

  SciTegic04271212382D

 34 38  0  0  0  0            999 V2000
   -3.6848    1.1042    0.0000 C   0  0
   -3.6860    0.6144    0.0000 C   0  0
   -3.2627    0.3723    0.0000 C   0  0
   -3.2645    1.3461    0.0000 C   0  0
   -2.8451    1.1079    0.0000 C   0  0
   -2.8401    0.6151    0.0000 C   0  0
   -2.3813    0.4677    0.0000 N   0  0
   -2.0956    0.8671    0.0000 C   0  0
   -2.3852    1.2606    0.0000 C   0  0
   -4.9473    1.8334    0.0000 C   0  0
   -4.9484    1.3435    0.0000 C   0  0
   -4.5253    1.0973    0.0000 C   0  0
   -4.1046    1.3440    0.0000 C   0  0
   -4.1075    1.8370    0.0000 C   0  0
   -4.5271    2.0711    0.0000 C   0  0
   -5.3726    2.0738    0.0000 C   0  0
   -5.3716    2.5613    0.0000 F   0  0
   -5.7947    1.8351    0.0000 F   0  0
   -5.8416    2.2042    0.0000 F   0  0
   -2.2247    0.0088    0.0000 S   0  0
   -1.7375    0.0084    0.0000 C   0  0
   -2.6917   -0.1125    0.0000 O   0  0
   -2.2292   -0.4750    0.0000 O   0  0
   -1.4970   -0.4097    0.0000 C   0  0
   -1.0105   -0.4106    0.0000 C   0  0
   -0.7692    0.0133    0.0000 C   0  0
   -1.0165    0.4354    0.0000 C   0  0
   -1.5015    0.4325    0.0000 C   0  0
   -0.2817    0.0181    0.0000 C   0  0
    0.0086   -0.3710    0.0000 N   0  0
    0.4674   -0.2230    0.0000 O   0  0
    0.4626    0.2646    0.0000 C   0  0
    0.0007    0.4117    0.0000 N   0  0
    0.8125    0.6125    0.0000 S   0  0
  1  2  2  0
  2  3  1  0
  1  4  1  0
  4  5  2  0
  3  6  2  0
  5  6  1  0
  6  7  1  0
  7  8  1  0
  5  9  1  0
  8  9  1  0
 10 11  2  0
 11 12  1  0
  1 13  1  0
 12 13  2  0
 13 14  1  0
 10 15  1  0
 14 15  2  0
 10 16  1  0
 16 17  1  0
 16 18  1  0
 16 19  1  0
  7 20  1  0
 20 21  1  0
 20 22  2  0
 20 23  2  0
 21 24  2  0
 24 25  1  0
 25 26  2  0
 26 27  1  0
 21 28  1  0
 27 28  2  0
 26 29  1  0
 29 30  2  0
 30 31  1  0
 31 32  1  0
 29 33  1  0
 32 33  1  0
 32 34  2  0
M  END
>  <ID_NEW>
CPDPP3206

>  <pEC50>
7.180961172910688

$$$$

  -MTS-   10172316532D 0   0.00000     0.00000     0

 36 39  0  0  1  0  0  0  0  0999 V2000
   -4.1350    1.2210    0.0000 C   0  0  0  0  0  0  0  0  0  0  0  0
   -4.1360    0.8350    0.0000 C   0  0  0  0  0  0  0  0  0  0  0  0
   -3.8000    0.6310    0.0000 C   0  0  0  0  0  0  0  0  0  0  0  0
   -3.8020    1.4210    0.0000 C   0  0  0  0  0  0  0  0  0  0  0  0
   -3.4620    1.2330    0.0000 C   0  0  0  0  0  0  0  0  0  0  0  0
   -3.4570    0.8360    0.0000 C   0  0  0  0  0  0  0  0  0  0  0  0
   -3.0850    0.7130    0.0000 N   0  0  0  0  0  0  0  0  0  0  0  0
   -2.8580    1.0300    0.0000 C   0  0  0  0  0  0  0  0  0  0  0  0
   -3.0930    1.3520    0.0000 C   0  0  0  0  0  0  0  0  0  0  0  0
   -5.1510    1.8120    0.0000 C   0  0  0  0  0  0  0  0  0  0  0  0
   -5.1530    1.4180    0.0000 C   0  0  0  0  0  0  0  0  0  0  0  0
   -4.8130    1.2180    0.0000 C   0  0  0  0  0  0  0  0  0  0  0  0
   -4.4750    1.4190    0.0000 C   0  0  0  0  0  0  0  0  0  0  0  0
   -4.4780    1.8160    0.0000 C   0  0  0  0  0  0  0  0  0  0  0  0
   -4.8150    2.0040    0.0000 C   0  0  0  0  0  0  0  0  0  0  0  0
   -5.4930    2.0070    0.0000 C   0  0  0  0  0  0  0  0  0  0  0  0
   -5.4920    2.3990    0.0000 F   0  0  0  0  0  0  0  0  0  0  0  0
   -5.8320    1.8140    0.0000 F   0  0  0  0  0  0  0  0  0  0  0  0
   -5.8750    2.1040    0.0000 F   0  0  0  0  0  0  0  0  0  0  0  0
   -2.9660    0.3420    0.0000 S   0  0  0  0  0  0  0  0  0  0  0  0
   -2.5790    0.3460    0.0000 C   0  0  0  0  0  0  0  0  0  0  0  0
   -3.3420    0.2460    0.0000 O   0  0  0  0  0  0  0  0  0  0  0  0
   -2.9670   -0.0500    0.0000 O   0  0  0  0  0  0  0  0  0  0  0  0
   -2.3720    0.0030    0.0000 C   0  0  0  0  0  0  0  0  0  0  0  0
   -1.9860    0.0060    0.0000 C   0  0  0  0  0  0  0  0  0  0  0  0
   -1.7900    0.3420    0.0000 C   0  0  0  0  0  0  0  0  0  0  0  0
   -1.9960    0.6850    0.0000 C   0  0  0  0  0  0  0  0  0  0  0  0
   -2.3760    0.6820    0.0000 C   0  0  0  0  0  0  0  0  0  0  0  0
   -1.4070    0.3470    0.0000 O   0  0  0  0  0  0  0  0  0  0  0  0
   -1.2090    0.0070    0.0000 C   0  0  0  0  0  0  0  0  0  0  0  0
   -0.8090    0.0080    0.0000 C   0  0  2  0  0  0  0  0  0  0  0  0
   -0.6150   -0.3280    0.0000 O   0  0  0  0  0  0  0  0  0  0  0  0
   -0.6230    0.3530    0.0000 C   0  0  0  0  0  0  0  0  0  0  0  0
   -0.2320    0.3580    0.0000 F   0  0  0  0  0  0  0  0  0  0  0  0
   -0.8170    0.6930    0.0000 F   0  0  0  0  0  0  0  0  0  0  0  0
   -0.4290    0.6960    0.0000 F   0  0  0  0  0  0  0  0  0  0  0  0
  1  2  2  0  0  0  0
  2  3  1  0  0  0  0
  3  6  2  0  0  0  0
  5  4  2  0  0  0  0
  4  1  1  0  0  0  0
  5  6  1  0  0  0  0
  6  7  1  0  0  0  0
  7  8  1  0  0  0  0
  8  9  1  0  0  0  0
  9  5  1  0  0  0  0
 10 11  2  0  0  0  0
 11 12  1  0  0  0  0
 12 13  2  0  0  0  0
 13 14  1  0  0  0  0
 14 15  2  0  0  0  0
 15 10  1  0  0  0  0
 10 16  1  0  0  0  0
 16 17  1  0  0  0  0
 16 18  1  0  0  0  0
 16 19  1  0  0  0  0
 13  1  1  0  0  0  0
  7 20  1  0  0  0  0
 20 21  1  0  0  0  0
 20 22  2  0  0  0  0
 20 23  2  0  0  0  0
 21 24  2  0  0  0  0
 24 25  1  0  0  0  0
 25 26  2  0  0  0  0
 26 27  1  0  0  0  0
 27 28  2  0  0  0  0
 28 21  1  0  0  0  0
 26 29  1  0  0  0  0
 29 30  1  0  0  0  0
 30 31  1  0  0  0  0
 31 32  1  0  0  0  0
 31 33  1  1  0  0  0
 33 34  1  0  0  0  0
 33 35  1  0  0  0  0
 33 36  1  0  0  0  0
M  END
>  <ID_NEW>
CPDPP3207

>  <pEC50>
7.1666666790949405

$$$$

  -MTS-   10172316532D 0   0.00000     0.00000     0

 45 49  0  0  0  0  0  0  0  0999 V2000
   -4.7760    1.5490    0.0000 C   0  0  0  0  0  0  0  0  0  0  0  0
   -5.0000    1.0690    0.0000 C   0  0  1  0  0  0  0  0  0  0  0  0
   -4.6970    0.6350    0.0000 C   0  0  0  0  0  0  0  0  0  0  0  0
   -4.1680    0.6830    0.0000 C   0  0  0  0  0  0  0  0  0  0  0  0
   -3.9440    1.1630    0.0000 C   0  0  2  0  0  0  0  0  0  0  0  0
   -4.2490    1.5980    0.0000 C   0  0  0  0  0  0  0  0  0  0  0  0
   -5.5250    1.0240    0.0000 C   0  0  0  0  0  0  0  0  0  0  0  0
   -5.8310    1.4570    0.0000 F   0  0  0  0  0  0  0  0  0  0  0  0
   -5.7490    0.5400    0.0000 F   0  0  0  0  0  0  0  0  0  0  0  0
   -5.4350    1.5430    0.0000 F   0  0  0  0  0  0  0  0  0  0  0  0
   -3.4140    1.2120    0.0000 C   0  0  0  0  0  0  0  0  0  0  0  0
   -3.0660    0.8110    0.0000 N   0  0  0  0  0  0  0  0  0  0  0  0
   -2.5780    1.0200    0.0000 C   0  0  0  0  0  0  0  0  0  0  0  0
   -2.6230    1.5490    0.0000 C   0  0  0  0  0  0  0  0  0  0  0  0
   -3.1450    1.6680    0.0000 S   0  0  0  0  0  0  0  0  0  0  0  0
   -2.1240    0.7460    0.0000 C   0  0  0  0  0  0  0  0  0  0  0  0
   -2.2240    1.8980    0.0000 C   0  0  0  0  0  0  0  0  0  0  0  0
   -1.7210    1.7270    0.0000 O   0  0  0  0  0  0  0  0  0  0  0  0
   -2.1310    0.2170    0.0000 N   0  0  0  0  0  0  0  0  0  0  0  0
   -2.5980   -0.0380    0.0000 C   0  0  0  0  0  0  0  0  0  0  0  0
   -2.6120   -0.5670    0.0000 C   0  0  0  0  0  0  0  0  0  0  0  0
   -2.1560   -0.8460    0.0000 C   0  0  0  0  0  0  0  0  0  0  0  0
   -1.6890   -0.5880    0.0000 C   0  0  0  0  0  0  0  0  0  0  0  0
   -1.6770   -0.0560    0.0000 C   0  0  0  0  0  0  0  0  0  0  0  0
   -2.1670   -1.3750    0.0000 C   0  0  0  0  0  0  0  0  0  0  0  0
   -2.6300   -1.6310    0.0000 F   0  0  0  0  0  0  0  0  0  0  0  0
   -1.7150   -1.6470    0.0000 F   0  0  0  0  0  0  0  0  0  0  0  0
   -2.6760   -1.2260    0.0000 F   0  0  0  0  0  0  0  0  0  0  0  0
   -1.3220    2.0760    0.0000 C   0  0  0  0  0  0  0  0  0  0  0  0
   -0.8210    1.9020    0.0000 C   0  0  0  0  0  0  0  0  0  0  0  0
   -0.4180    2.2500    0.0000 C   0  0  0  0  0  0  0  0  0  0  0  0
   -0.5190    2.7710    0.0000 C   0  0  0  0  0  0  0  0  0  0  0  0
   -1.0280    2.9450    0.0000 C   0  0  0  0  0  0  0  0  0  0  0  0
   -1.4220    2.5950    0.0000 C   0  0  0  0  0  0  0  0  0  0  0  0
    0.0810    2.0780    0.0000 O   0  0  0  0  0  0  0  0  0  0  0  0
    0.1810    1.5580    0.0000 C   0  0  0  0  0  0  0  0  0  0  0  0
    0.6800    1.3870    0.0000 F   0  0  0  0  0  0  0  0  0  0  0  0
   -0.2180    1.2100    0.0000 F   0  0  0  0  0  0  0  0  0  0  0  0
   -1.9220    2.7640    0.0000 F   0  0  0  0  0  0  0  0  0  0  0  0
   -0.1210    3.1210    0.0000 C   0  0  0  0  0  0  0  0  0  0  0  0
    0.3830    2.9510    0.0000 N   0  0  0  0  0  0  0  0  0  0  0  0
   -0.2220    3.6450    0.0000 N   0  0  0  0  0  0  0  0  0  0  0  0
    0.7540    3.3330    0.0000 C   0  0  0  0  0  0  0  0  0  0  0  0
    0.5460    3.8330    0.0000 O   0  0  0  0  0  0  0  0  0  0  0  0
    1.4620    3.3180    0.0000 O   0  0  0  0  0  0  0  0  0  0  0  0
 23 24  1  0  0  0  0
 22 25  1  0  0  0  0
 25 26  1  0  0  0  0
 25 27  1  0  0  0  0
 25 28  1  0  0  0  0
 18 29  1  0  0  0  0
 29 30  2  0  0  0  0
 30 31  1  0  0  0  0
 31 32  2  0  0  0  0
 32 33  1  0  0  0  0
 33 34  2  0  0  0  0
 34 29  1  0  0  0  0
 31 35  1  0  0  0  0
 35 36  1  0  0  0  0
 36 37  1  0  0  0  0
 36 38  1  0  0  0  0
 34 39  1  0  0  0  0
 32 40  1  0  0  0  0
 40 41  1  0  0  0  0
 40 42  2  0  0  0  0
  1  2  1  0  0  0  0
  1  6  1  0  0  0  0
  2  3  1  0  0  0  0
  3  4  1  0  0  0  0
  4  5  1  0  0  0  0
  5  6  1  0  0  0  0
  2  7  1  1  0  0  0
  7  8  1  0  0  0  0
  7  9  1  0  0  0  0
  7 10  1  0  0  0  0
  5 11  1  6  0  0  0
 11 12  2  0  0  0  0
 12 13  1  0  0  0  0
 13 14  2  0  0  0  0
 14 15  1  0  0  0  0
 15 11  1  0  0  0  0
 13 16  1  0  0  0  0
 14 17  1  0  0  0  0
 17 18  1  0  0  0  0
 16 19  1  0  0  0  0
 19 20  1  0  0  0  0
 19 24  1  0  0  0  0
 20 21  1  0  0  0  0
 21 22  1  0  0  0  0
 22 23  1  0  0  0  0
 41 43  1  0  0  0  0
 42 44  1  0  0  0  0
 44 43  1  0  0  0  0
 43 45  2  0  0  0  0
V    2 M1
V    5 M1
M  END
>  <ID_NEW>
CPDPP3208

>  <pEC50>
7.149222797853826

$$$$

  SciTegic12180813012D

 34 38  0  0  0  0            999 V2000
    4.6578    0.2562    0.0000 C   0  0
    3.9950   -0.9193    0.0000 C   0  0
    3.9966    1.4256    0.0000 C   0  0
    6.0096    0.2552    0.0000 C   0  0
    2.6398   -0.9183    0.0000 C   0  0
    4.6562   -2.1266    0.0000 C   0  0
    2.6414    1.4266    0.0000 C   0  0
    1.9406    0.2580    0.0000 C   0  0
    0.5721    0.2607    0.0000 O   0  0
   -4.1941    1.4684    0.0000 C   0  0
   -4.6016    0.7483    0.0000 C   0  0
   -4.1819    0.0376    0.0000 C   0  0
   -3.3548    0.0456    0.0000 C   0  0
   -2.9492    0.7704    0.0000 C   0  0
   -3.3713    1.4782    0.0000 C   0  0
   -2.1243    0.7817    0.0000 C   0  0
   -1.6293    0.1227    0.0000 O   0  0
   -0.8483    0.3884    0.0000 C   0  0
   -0.8596    1.2134    0.0000 C   0  0
   -1.6477    1.4574    0.0000 N   0  0
   -5.4266    0.7407    0.0000 O   0  0
   -0.1742   -0.0872    0.0000 C   0  0
   -0.1996    1.7097    0.0000 C   0  0
   -5.8325    0.0225    0.0000 C   0  0
   -0.1327    2.5320    0.0000 N   0  0
    6.8066   -0.8338    0.0000 N   0  0
    8.0925   -0.4170    0.0000 O   0  0
    8.0935    0.9349    0.0000 C   0  0
    6.8082    1.3534    0.0000 N   0  0
    9.1878    1.7288    0.0000 O   0  0
    0.5705    2.9621    0.0000 C   0  0
    0.3800    3.7648    0.0000 C   0  0
   -0.4424    3.8317    0.0000 C   0  0
   -0.7600    3.0703    0.0000 C   0  0
  1  2  1  0
  1  3  2  0
  1  4  1  0
  2  5  2  0
  2  6  1  0
  3  7  1  0
  5  8  1  0
  7  8  2  0
  8  9  1  0
 10 11  2  0
 11 12  1  0
 12 13  2  0
 13 14  1  0
 14 15  2  0
 15 10  1  0
 14 16  1  0
 16 17  1  0
 17 18  1  0
 18 19  2  0
 19 20  1  0
 20 16  2  0
 11 21  1  0
 18 22  1  0
 22  9  1  0
 19 23  1  0
 21 24  1  0
 23 25  1  0
  4 26  2  0
 26 27  1  0
 27 28  1  0
 28 29  1  0
 29  4  1  0
 28 30  2  0
 25 31  1  0
 31 32  1  0
 32 33  1  0
 33 34  1  0
 34 25  1  0
M  END
>  <ID_NEW>
CPDPP3209

>  <pEC50>
7.148148408945705

$$$$

  SciTegic12180812582D

 38 42  0  0  0  0            999 V2000
   12.6010   -4.7571    0.0000 C   0  0
   11.1299   -5.0502    0.0000 C   0  0
   10.6482   -6.4707    0.0000 C   0  0
   11.6376   -7.5982    0.0000 C   0  0
   13.1087   -7.3051    0.0000 C   0  0
   13.5904   -5.8845    0.0000 C   0  0
    9.1771   -6.7638    0.0000 O   0  0
   14.0981   -8.4325    0.0000 Cl  0  0
    2.1231   -7.8873    0.0000 C   0  0
    1.1077   -8.9892    0.0000 C   0  0
    1.5541  -10.4215    0.0000 C   0  0
    3.0160  -10.7521    0.0000 C   0  0
    4.0314   -9.6503    0.0000 C   0  0
    3.5850   -8.2179    0.0000 C   0  0
    0.5302  -11.5234    0.0000 C   0  0
    4.6006   -7.1161    0.0000 C   0  0
    6.0942   -7.2919    0.0000 S   0  0
    6.7249   -5.9295    0.0000 C   0  0
    5.6185   -4.9117    0.0000 C   0  0
    4.3103   -5.6450    0.0000 N   0  0
    5.7926   -3.4220    0.0000 C   0  0
    8.1877   -5.6364    0.0000 C   0  0
    1.3294  -12.7917    0.0000 F   0  0
   -0.6594  -12.4317    0.0000 F   0  0
   -0.4776  -10.4134    0.0000 F   0  0
    2.0083   -2.2213    0.0000 C   0  0
    3.2145   -3.1175    0.0000 C   0  0
    4.5948   -2.5251    0.0000 N   0  0
    4.7690   -1.0398    0.0000 C   0  0
    3.5628   -0.1452    0.0000 C   0  0
    2.1908   -0.7360    0.0000 N   0  0
    0.9846    0.1586    0.0000 C   0  0
   15.0615   -5.5914    0.0000 C   0  0
   16.1639   -6.5992    0.0000 N   0  0
   17.4724   -5.8658    0.0000 O   0  0
   17.1792   -4.3947    0.0000 C   0  0
   15.6896   -4.2191    0.0000 N   0  0
   17.9292   -3.0917    0.0000 O   0  0
 10 11  1  0
 13 14  2  0
 17 18  1  0
 18 19  2  0
 19 20  1  0
 20 16  2  0
 14  9  1  0
 19 21  1  0
  9 10  2  0
  6  1  1  0
  3  7  1  0
  5  8  1  0
  1  2  2  0
  2  3  1  0
  3  4  2  0
 26 27  1  0
 26 31  1  0
 27 28  1  0
 28 29  1  0
 29 30  1  0
 30 31  1  0
 31 32  1  0
 21 28  1  0
  4  5  1  0
  5  6  2  0
 18 22  1  0
 11 15  1  0
 22  7  1  0
 11 12  2  0
 14 16  1  0
  6 33  1  0
 33 34  2  0
 15 23  1  0
 16 17  1  0
 15 24  1  0
 15 25  1  0
 34 35  1  0
 35 36  1  0
 36 37  1  0
 37 33  1  0
 12 13  1  0
 36 38  2  0
M  END
>  <ID_NEW>
CPDPP3210

>  <pEC50>
7.147430349821368

$$$$

  -MTS-   10172316532D 0   0.00000     0.00000     0

 34 37  0  0  1  0  0  0  0  0999 V2000
   -1.1710   -1.4590    0.0000 C   0  0  0  0  0  0  0  0  0  0  0  0
   -0.5240   -1.0860    0.0000 C   0  0  1  0  0  0  0  0  0  0  0  0
   -0.5150   -0.3410    0.0000 N   0  0  0  0  0  0  0  0  0  0  0  0
   -1.1700    0.0410    0.0000 C   0  0  1  0  0  0  0  0  0  0  0  0
   -1.8130   -0.3320    0.0000 C   0  0  0  0  0  0  0  0  0  0  0  0
   -1.8200   -1.0870    0.0000 N   0  0  0  0  0  0  0  0  0  0  0  0
    0.1220   -1.4600    0.0000 C   0  0  0  0  0  0  0  0  0  0  0  0
   -1.1540    0.7910    0.0000 C   0  0  0  0  0  0  0  0  0  0  0  0
   -5.0540   -2.2390    0.0000 C   0  0  0  0  0  0  0  0  0  0  0  0
   -5.0610   -1.4890    0.0000 F   0  0  0  0  0  0  0  0  0  0  0  0
   -5.7080   -2.6110    0.0000 F   0  0  0  0  0  0  0  0  0  0  0  0
   -5.7070   -1.8520    0.0000 F   0  0  0  0  0  0  0  0  0  0  0  0
   -2.4540   -1.4720    0.0000 C   0  0  0  0  0  0  0  0  0  0  0  0
   -3.1050   -1.0870    0.0000 C   0  0  0  0  0  0  0  0  0  0  0  0
   -3.7550   -1.4720    0.0000 C   0  0  0  0  0  0  0  0  0  0  0  0
   -3.7570   -2.2230    0.0000 C   0  0  0  0  0  0  0  0  0  0  0  0
   -3.0900   -2.5870    0.0000 C   0  0  0  0  0  0  0  0  0  0  0  0
   -2.4430   -2.2240    0.0000 C   0  0  0  0  0  0  0  0  0  0  0  0
   -4.4070   -2.6020    0.0000 O   0  0  0  0  0  0  0  0  0  0  0  0
    0.1150    0.0570    0.0000 S   0  0  0  0  0  0  0  0  0  0  0  0
    1.4110    0.0600    0.0000 C   0  0  0  0  0  0  0  0  0  0  0  0
    2.0650    0.4340    0.0000 C   0  0  0  0  0  0  0  0  0  0  0  0
    2.0630    1.1840    0.0000 C   0  0  0  0  0  0  0  0  0  0  0  0
    0.7590    0.4340    0.0000 C   0  0  0  0  0  0  0  0  0  0  0  0
    0.7610    1.1820    0.0000 C   0  0  0  0  0  0  0  0  0  0  0  0
    1.4090    1.5510    0.0000 C   0  0  0  0  0  0  0  0  0  0  0  0
    1.2480    2.2930    0.0000 C   0  0  0  0  0  0  0  0  0  0  0  0
    0.4980    2.3660    0.0000 C   0  0  2  0  0  0  0  0  0  0  0  0
    0.1940    1.6820    0.0000 C   0  0  0  0  0  0  0  0  0  0  0  0
    0.1240    3.0210    0.0000 C   0  0  0  0  0  0  0  0  0  0  0  0
    0.4970    3.6720    0.0000 O   0  0  0  0  0  0  0  0  0  0  0  0
   -0.6260    3.0170    0.0000 O   0  0  0  0  0  0  0  0  0  0  0  0
    0.5120   -0.5800    0.0000 O   0  0  0  0  0  0  0  0  0  0  0  0
   -0.2850    0.6800    0.0000 O   0  0  0  0  0  0  0  0  0  0  0  0
  4  5  1  0  0  0  0
  5  6  1  0  0  0  0
  2  7  1  1  0  0  0
  4  8  1  1  0  0  0
  1  2  1  0  0  0  0
  1  6  1  0  0  0  0
  2  3  1  0  0  0  0
  3  4  1  0  0  0  0
 13 14  2  0  0  0  0
 14 15  1  0  0  0  0
 15 16  2  0  0  0  0
 16 17  1  0  0  0  0
 17 18  2  0  0  0  0
 18 13  1  0  0  0  0
 16 19  1  0  0  0  0
 19  9  1  0  0  0  0
  9 10  1  0  0  0  0
  9 11  1  0  0  0  0
  9 12  1  0  0  0  0
  6 13  1  0  0  0  0
 25 24  2  0  0  0  0
 24 21  1  0  0  0  0
 25 26  1  0  0  0  0
 26 27  1  0  0  0  0
 27 28  1  0  0  0  0
 28 29  1  0  0  0  0
 29 25  1  0  0  0  0
 28 30  1  6  0  0  0
 30 31  1  0  0  0  0
 30 32  2  0  0  0  0
 21 22  2  0  0  0  0
 22 23  1  0  0  0  0
 23 26  2  0  0  0  0
 24 20  1  0  0  0  0
 20 33  2  0  0  0  0
 20  3  1  0  0  0  0
 20 34  2  0  0  0  0
M  END
>  <ID_NEW>
CPDPP3211

>  <pEC50>
7.143888446410411

$$$$

  SciTegic12180813022D

 37 41  0  0  0  0            999 V2000
   -2.4056    2.8250    0.0000 C   0  0
   -2.4068    2.4352    0.0000 C   0  0
   -2.0669    2.2431    0.0000 C   0  0
   -1.7297    2.4356    0.0000 C   0  0
   -1.7325    2.8287    0.0000 C   0  0
   -2.0062    3.0128    0.0000 C   0  0
   -1.3426    3.0194    0.0000 C   0  0
   -0.9997    2.8338    0.0000 N   0  0
   -1.3999    2.2445    0.0000 F   0  0
   -3.9420    1.8958    0.0000 C   0  0
   -4.3242    1.8443    0.0000 C   0  0
   -3.7403    2.2314    0.0000 S   0  0
   -3.6924    1.6089    0.0000 N   0  0
   -4.4688    1.4991    0.0000 C   0  0
   -4.5512    2.1532    0.0000 C   0  0
   -3.3621    2.1410    0.0000 C   0  0
   -3.3415    1.7421    0.0000 C   0  0
   -4.8441    1.4481    0.0000 C   0  0
   -4.9376    2.0990    0.0000 C   0  0
   -3.0762    2.3878    0.0000 C   0  0
   -3.0172    1.5268    0.0000 C   0  0
   -5.0777    1.7561    0.0000 C   0  0
   -2.7208    2.2654    0.0000 O   0  0
   -5.4525    1.7132    0.0000 C   0  0
   -5.8302    1.6746    0.0000 F   0  0
   -5.4189    1.3322    0.0000 F   0  0
   -5.4857    2.0835    0.0000 F   0  0
   -1.3455    3.4082    0.0000 N   0  0
   -0.9597    3.4698    0.0000 C   0  0
   -0.7167    3.1750    0.0000 O   0  0
   -0.8235    3.8315    0.0000 O   0  0
   -3.0414    1.1383    0.0000 N   0  0
   -3.3912    0.9656    0.0000 C   0  0
   -3.4163    0.5788    0.0000 C   0  0
   -3.0929    0.3618    0.0000 O   0  0
   -2.7435    0.5344    0.0000 C   0  0
   -2.7174    0.9241    0.0000 C   0  0
  2  3  1  0
  3  4  2  0
  4  5  1  0
  5  6  2  0
  6  1  1  0
  5  7  1  0
  7  8  2  0
  4  9  1  0
 10 11  1  0
 10 12  1  0
 10 13  2  0
 11 14  1  0
 11 15  2  0
 12 16  1  0
 13 17  1  0
 14 18  2  0
 15 19  1  0
 16 20  1  0
 17 21  1  0
 18 22  1  0
 20 23  1  0
 22 24  1  0
 24 25  1  0
 24 26  1  0
 24 27  1  0
 16 17  2  0
 19 22  2  0
  2 23  1  0
  7 28  1  0
 28 29  1  0
  8 30  1  0
 29 30  1  0
 29 31  2  0
 21 32  1  0
 32 33  1  0
 32 37  1  0
 33 34  1  0
 34 35  1  0
 35 36  1  0
 36 37  1  0
  1  2  2  0
M  END
>  <ID_NEW>
CPDPP3212

>  <pEC50>
7.1373087276868015

$$$$

  SciTegic12180813042D

 34 37  0  0  0  0            999 V2000
   -4.0746    3.1777    0.0000 C   0  0
   -4.4256    3.1272    0.0000 C   0  0
   -3.8861    3.4837    0.0000 S   0  0
   -3.8416    2.9049    0.0000 N   0  0
   -4.5659    2.8018    0.0000 C   0  0
   -4.6389    3.4137    0.0000 C   0  0
   -3.5357    3.3994    0.0000 C   0  0
   -3.5068    3.0308    0.0000 C   0  0
   -4.9141    2.7564    0.0000 C   0  0
   -5.0036    3.3686    0.0000 C   0  0
   -3.2621    3.6361    0.0000 C   0  0
   -3.2009    2.8326    0.0000 C   0  0
   -5.1309    3.0412    0.0000 C   0  0
   -2.9282    3.5179    0.0000 O   0  0
   -5.4798    2.9939    0.0000 C   0  0
   -5.8333    2.9656    0.0000 F   0  0
   -5.4502    2.6432    0.0000 F   0  0
   -5.5128    3.3504    0.0000 F   0  0
   -2.5708    3.5208    0.0000 C   0  0
   -2.3895    3.2106    0.0000 C   0  0
   -2.0409    3.2091    0.0000 C   0  0
   -1.8642    3.5184    0.0000 C   0  0
   -2.0402    3.8302    0.0000 C   0  0
   -2.3919    3.8292    0.0000 C   0  0
   -1.8644    2.9076    0.0000 O   0  0
   -1.5020    3.5179    0.0000 C   0  0
   -1.3323    3.2118    0.0000 N   0  0
   -1.3316    3.8315    0.0000 N   0  0
   -0.9111    3.7343    0.0000 O   0  0
   -0.9086    3.3220    0.0000 C   0  0
   -0.6764    3.1075    0.0000 O   0  0
   -3.2196    2.4685    0.0000 C   0  0
   -2.9137    2.2704    0.0000 C   0  0
   -2.9324    1.9063    0.0000 C   0  0
  1  2  1  0
  1  3  1  0
  1  4  2  0
  2  5  1  0
  2  6  2  0
  3  7  1  0
  4  8  1  0
  5  9  2  0
  6 10  1  0
  7 11  1  0
  8 12  1  0
  9 13  1  0
 11 14  1  0
 13 15  1  0
 15 16  1  0
 15 17  1  0
 15 18  1  0
  7  8  2  0
 10 13  2  0
 14 19  1  0
 19 20  2  0
 20 21  1  0
 21 22  2  0
 22 23  1  0
 23 24  2  0
 24 19  1  0
 21 25  1  0
 22 26  1  0
 26 27  1  0
 26 28  2  0
 28 29  1  0
 27 30  1  0
 30 31  2  0
 29 30  1  0
 12 32  1  0
 32 33  1  0
 33 34  1  0
M  END
>  <ID_NEW>
CPDPP3213

>  <pEC50>
7.136943102087998

$$$$

  SciTegic12180813072D

 36 39  0  0  0  0            999 V2000
   -4.4014    1.1210    0.0000 C   0  0
   -4.4026    0.2936    0.0000 C   0  0
   -3.6878   -0.1193    0.0000 C   0  0
   -2.9713    0.2941    0.0000 C   0  0
   -2.9742    1.1246    0.0000 C   0  0
   -3.6896    1.5337    0.0000 C   0  0
   -2.2613    1.5398    0.0000 C   0  0
   -5.1174   -0.1183    0.0000 C   0  0
   -5.1181   -0.9433    0.0000 F   0  0
   -5.8315    0.2948    0.0000 F   0  0
   -4.3207   -0.3325    0.0000 F   0  0
   -1.5068    1.2095    0.0000 S   0  0
   -0.9571    1.8247    0.0000 C   0  0
   -1.3723    2.5377    0.0000 C   0  0
   -2.1786    2.3630    0.0000 N   0  0
   -1.0397    3.2926    0.0000 C   0  0
   -0.1363    1.7416    0.0000 C   0  0
    0.2030    0.9930    0.0000 O   0  0
    0.3461    2.4109    0.0000 C   0  0
    0.0077    3.1633    0.0000 C   0  0
    0.4901    3.8325    0.0000 C   0  0
    0.8677    1.7717    0.0000 F   0  0
    1.1629    2.3219    0.0000 F   0  0
    0.7089    0.3414    0.0000 C   0  0
    1.5263    0.4538    0.0000 C   0  0
    2.0295   -0.2009    0.0000 C   0  0
    2.8461   -0.0889    0.0000 C   0  0
    3.1581    0.6757    0.0000 C   0  0
    2.6474    1.3291    0.0000 C   0  0
    1.8327    1.2138    0.0000 C   0  0
    3.9753    0.7892    0.0000 C   0  0
    4.5492    0.1969    0.0000 N   0  0
    5.2913    0.5574    0.0000 O   0  0
    5.1778    1.3747    0.0000 C   0  0
    4.3655    1.5191    0.0000 N   0  0
    5.7721    1.9469    0.0000 O   0  0
  3  4  2  0
  5  7  1  0
  4  5  1  0
  2  3  1  0
  5  6  2  0
  6  1  1  0
  1  2  2  0
  2  8  1  0
  8  9  1  0
  8 10  1  0
  8 11  1  0
  7 12  1  0
 12 13  1  0
 13 14  2  0
 14 15  1  0
 15  7  2  0
 14 16  1  0
 13 17  1  0
 17 18  1  0
 17 19  1  0
 19 23  1  0
 19 20  1  0
 20 21  1  0
 19 22  1  0
 18 24  1  0
 24 25  1  0
 25 26  2  0
 26 27  1  0
 27 28  2  0
 28 29  1  0
 29 30  2  0
 30 25  1  0
 28 31  1  0
 31 32  2  0
 32 33  1  0
 33 34  1  0
 34 35  1  0
 35 31  1  0
 34 36  2  0
M  END
>  <ID_NEW>
CPDPP3214

>  <pEC50>
7.127766704608556

$$$$

  SciTegic12180813082D

 36 39  0  0  0  0            999 V2000
   -4.4014    0.7043    0.0000 C   0  0
   -4.4026   -0.1231    0.0000 C   0  0
   -3.6878   -0.5360    0.0000 N   0  0
   -2.9713   -0.1226    0.0000 C   0  0
   -2.9742    0.7079    0.0000 C   0  0
   -3.6896    1.1170    0.0000 C   0  0
   -2.2613    1.1231    0.0000 C   0  0
   -5.1174   -0.5350    0.0000 C   0  0
   -5.1181   -1.3600    0.0000 F   0  0
   -5.8315   -0.1219    0.0000 F   0  0
   -4.3207   -0.7492    0.0000 F   0  0
   -1.5068    0.7928    0.0000 S   0  0
   -0.9571    1.4080    0.0000 C   0  0
   -1.3723    2.1210    0.0000 C   0  0
   -2.1786    1.9463    0.0000 N   0  0
   -1.0397    2.8759    0.0000 C   0  0
   -0.1363    1.3249    0.0000 C   0  0
    0.2021    0.5725    0.0000 O   0  0
    0.3461    1.9942    0.0000 C   0  0
    1.1669    1.9110    0.0000 F   0  0
    0.0077    2.7466    0.0000 C   0  0
    0.4901    3.4158    0.0000 C   0  0
    0.8677    1.3550    0.0000 F   0  0
    1.7360    1.4583    0.0000 C   0  0
    1.7349    0.5726    0.0000 C   0  0
    2.4997    0.1305    0.0000 C   0  0
    3.2661    0.5730    0.0000 C   0  0
    3.2633    1.4619    0.0000 C   0  0
    2.4979    1.9002    0.0000 C   0  0
    0.9701    0.1315    0.0000 C   0  0
    4.0317    1.9090    0.0000 C   0  0
    4.8439    1.5552    0.0000 N   0  0
    5.4366    2.2178    0.0000 O   0  0
    4.9894    2.9863    0.0000 C   0  0
    4.1205    2.7984    0.0000 N   0  0
    5.3482    3.7998    0.0000 O   0  0
  8  9  1  0
  8 10  1  0
  8 11  1  0
  7 12  1  0
 12 13  1  0
 13 14  2  0
 14 15  1  0
 15  7  2  0
 14 16  1  0
 13 17  1  0
 17 18  1  0
 17 19  1  0
 19 20  1  0
 19 21  1  0
 21 22  1  0
 19 23  1  0
  3  4  2  0
  5  7  1  0
  4  5  1  0
  2  3  1  0
  5  6  2  0
  6  1  1  0
  1  2  2  0
  2  8  1  0
 25 26  1  0
 26 27  2  0
 27 28  1  0
 24 25  2  0
 28 29  2  0
 29 24  1  0
 30 18  1  0
 28 31  1  0
 25 30  1  0
 31 32  2  0
 32 33  1  0
 33 34  1  0
 34 35  1  0
 35 31  1  0
 34 36  2  0
M  END
>  <ID_NEW>
CPDPP3215

>  <pEC50>
7.090164305049069

$$$$

  -MTS-   10172316532D 0   0.00000     0.00000     0

 34 37  0  0  1  0  0  0  0  0999 V2000
   -4.9220    0.7620    0.0000 C   0  0  0  0  0  0  0  0  0  0  0  0
   -4.9230    0.3140    0.0000 C   0  0  1  0  0  0  0  0  0  0  0  0
   -4.5290    0.0890    0.0000 C   0  0  0  0  0  0  0  0  0  0  0  0
   -4.1420    0.3150    0.0000 C   0  0  0  0  0  0  0  0  0  0  0  0
   -4.1450    0.7660    0.0000 C   0  0  2  0  0  0  0  0  0  0  0  0
   -4.5310    0.9880    0.0000 C   0  0  0  0  0  0  0  0  0  0  0  0
   -5.3100    0.0890    0.0000 C   0  0  0  0  0  0  0  0  0  0  0  0
   -3.7550    0.9930    0.0000 C   0  0  0  0  0  0  0  0  0  0  0  0
   -5.7060    0.3140    0.0000 F   0  0  0  0  0  0  0  0  0  0  0  0
   -5.3110   -0.3610    0.0000 F   0  0  0  0  0  0  0  0  0  0  0  0
   -5.4260    0.5220    0.0000 F   0  0  0  0  0  0  0  0  0  0  0  0
   -3.3440    0.8140    0.0000 N   0  0  0  0  0  0  0  0  0  0  0  0
   -3.0440    1.1470    0.0000 C   0  0  0  0  0  0  0  0  0  0  0  0
   -3.2720    1.5370    0.0000 C   0  0  0  0  0  0  0  0  0  0  0  0
   -3.7120    1.4420    0.0000 S   0  0  0  0  0  0  0  0  0  0  0  0
   -2.5980    1.1010    0.0000 C   0  0  0  0  0  0  0  0  0  0  0  0
   -3.0910    1.9460    0.0000 C   0  0  1  0  0  0  0  0  0  0  0  0
   -2.6450    1.9980    0.0000 O   0  0  0  0  0  0  0  0  0  0  0  0
   -3.3560    2.3090    0.0000 C   0  0  0  0  0  0  0  0  0  0  0  0
   -3.1750    2.7230    0.0000 C   0  0  0  0  0  0  0  0  0  0  0  0
   -2.2580    2.2250    0.0000 C   0  0  0  0  0  0  0  0  0  0  0  0
   -1.8640    2.0050    0.0000 C   0  0  0  0  0  0  0  0  0  0  0  0
   -1.4820    2.2320    0.0000 C   0  0  0  0  0  0  0  0  0  0  0  0
   -1.4860    2.6810    0.0000 C   0  0  0  0  0  0  0  0  0  0  0  0
   -1.8800    2.9030    0.0000 C   0  0  0  0  0  0  0  0  0  0  0  0
   -2.2640    2.6700    0.0000 C   0  0  0  0  0  0  0  0  0  0  0  0
   -1.0990    2.9140    0.0000 C   0  0  0  0  0  0  0  0  0  0  0  0
   -0.7080    2.6920    0.0000 N   0  0  0  0  0  0  0  0  0  0  0  0
   -1.1080    3.3600    0.0000 N   0  0  0  0  0  0  0  0  0  0  0  0
   -1.8860    3.3490    0.0000 O   0  0  0  0  0  0  0  0  0  0  0  0
   -1.5040    3.5820    0.0000 C   0  0  0  0  0  0  0  0  0  0  0  0
   -0.3210    2.9210    0.0000 C   0  0  0  0  0  0  0  0  0  0  0  0
    0.0620    2.7000    0.0000 O   0  0  0  0  0  0  0  0  0  0  0  0
   -0.4370    3.3500    0.0000 O   0  0  0  0  0  0  0  0  0  0  0  0
  6  1  1  0  0  0  0
 17 19  1  6  0  0  0
 19 20  1  0  0  0  0
  2  7  1  1  0  0  0
 18 21  1  0  0  0  0
 21 22  2  0  0  0  0
  5  8  1  6  0  0  0
 22 23  1  0  0  0  0
 23 24  2  0  0  0  0
  7  9  1  0  0  0  0
 24 25  1  0  0  0  0
  1  2  1  0  0  0  0
 25 26  2  0  0  0  0
 26 21  1  0  0  0  0
  7 10  1  0  0  0  0
 24 27  1  0  0  0  0
 27 28  1  0  0  0  0
  7 11  1  0  0  0  0
 27 29  2  0  0  0  0
  8 12  2  0  0  0  0
  2  3  1  0  0  0  0
 25 30  1  0  0  0  0
 30 31  1  0  0  0  0
  3  4  1  0  0  0  0
 12 13  1  0  0  0  0
 13 14  2  0  0  0  0
 14 15  1  0  0  0  0
 15  8  1  0  0  0  0
  4  5  1  0  0  0  0
 13 16  1  0  0  0  0
 14 17  1  0  0  0  0
 28 32  1  0  0  0  0
  5  6  1  0  0  0  0
 32 33  2  0  0  0  0
 17 18  1  0  0  0  0
 32 34  1  0  0  0  0
 29 34  1  0  0  0  0
M  END
>  <ID_NEW>
CPDPP3216

>  <pEC50>
7.088491754365394

$$$$

  SciTegic12180813072D

 36 39  0  0  0  0            999 V2000
    1.5542    0.7125    0.0000 C   0  0
    2.3085    0.2866    0.0000 N   0  0
    3.0562    0.7200    0.0000 C   0  0
    3.0493    1.5923    0.0000 C   0  0
    3.7935    2.0318    0.0000 C   0  0
    1.5512    1.5816    0.0000 C   0  0
    2.2975    2.0174    0.0000 C   0  0
    3.8085    0.2947    0.0000 Cl  0  0
    0.8598    0.3029    0.0000 C   0  0
   -4.4306    0.6416    0.0000 C   0  0
   -4.4318   -0.1690    0.0000 C   0  0
   -3.7295   -0.5736    0.0000 N   0  0
   -3.0297   -0.1686    0.0000 C   0  0
   -3.0326    0.6453    0.0000 C   0  0
   -3.7313    1.0461    0.0000 C   0  0
   -5.1299   -0.5727    0.0000 C   0  0
   -2.3322    1.0522    0.0000 C   0  0
   -5.8315   -0.1679    0.0000 F   0  0
   -5.1305   -1.3810    0.0000 F   0  0
   -5.3387    0.2078    0.0000 F   0  0
   -1.5920    0.7220    0.0000 S   0  0
   -1.0548    1.3288    0.0000 C   0  0
   -1.4616    2.0251    0.0000 C   0  0
   -2.2513    1.8545    0.0000 N   0  0
   -1.1373    2.7676    0.0000 C   0  0
   -0.2506    1.2456    0.0000 C   0  0
    0.0794    0.5057    0.0000 O   0  0
    0.2234    1.9024    0.0000 C   0  0
    1.0276    1.8193    0.0000 F   0  0
   -0.1108    2.6382    0.0000 F   0  0
    0.7325    1.2757    0.0000 F   0  0
    4.5852    1.6906    0.0000 N   0  0
    5.1572    2.3385    0.0000 O   0  0
    4.7177    3.0828    0.0000 C   0  0
    3.8741    2.8946    0.0000 N   0  0
    5.1250    3.8000    0.0000 O   0  0
  4  5  1  0
 11 12  1  0
 12 13  2  0
 13 14  1  0
 14 15  2  0
 15 10  1  0
 11 16  1  0
 14 17  1  0
 16 18  1  0
 16 19  1  0
 16 20  1  0
 17 21  1  0
 21 22  1  0
 22 23  2  0
 23 24  1  0
 24 17  2  0
 23 25  1  0
 22 26  1  0
 10 11  2  0
 26 27  1  0
 27  9  1  0
 26 28  1  0
 28 29  1  0
 28 30  1  0
 28 31  1  0
  9  1  1  0
  6  7  1  0
  6  1  2  0
  1  2  1  0
  5 32  2  0
  3  8  1  0
  2  3  2  0
  3  4  1  0
 32 33  1  0
 33 34  1  0
 34 35  1  0
 35  5  1  0
  4  7  2  0
 34 36  2  0
M  END
>  <ID_NEW>
CPDPP3217

>  <pEC50>
7.08349050283182

$$$$

  -MTS-   10172316532D 0   0.00000     0.00000     0

 46 50  0  0  1  0  0  0  0  0999 V2000
   -1.8640    2.4170    0.0000 C   0  0  0  0  0  0  0  0  0  0  0  0
   -1.8650    1.9850    0.0000 C   0  0  0  0  0  0  0  0  0  0  0  0
   -1.4790    1.7600    0.0000 C   0  0  0  0  0  0  0  0  0  0  0  0
   -1.1050    1.9860    0.0000 C   0  0  0  0  0  0  0  0  0  0  0  0
   -1.1070    2.4200    0.0000 C   0  0  0  0  0  0  0  0  0  0  0  0
   -1.4810    2.6290    0.0000 C   0  0  0  0  0  0  0  0  0  0  0  0
   -0.7380    2.6320    0.0000 C   0  0  0  0  0  0  0  0  0  0  0  0
   -0.3540    2.4300    0.0000 N   0  0  0  0  0  0  0  0  0  0  0  0
   -0.7330    1.7610    0.0000 O   0  0  0  0  0  0  0  0  0  0  0  0
   -0.7320    1.3350    0.0000 C   0  0  0  0  0  0  0  0  0  0  0  0
   -3.5880    1.3750    0.0000 C   0  0  0  0  0  0  0  0  0  0  0  0
   -4.0160    1.3190    0.0000 C   0  0  0  0  0  0  0  0  0  0  0  0
   -3.3610    1.7520    0.0000 S   0  0  0  0  0  0  0  0  0  0  0  0
   -3.3130    1.0510    0.0000 N   0  0  0  0  0  0  0  0  0  0  0  0
   -4.1810    0.9280    0.0000 C   0  0  0  0  0  0  0  0  0  0  0  0
   -4.2720    1.6620    0.0000 C   0  0  0  0  0  0  0  0  0  0  0  0
   -2.9370    1.6530    0.0000 C   0  0  0  0  0  0  0  0  0  0  0  0
   -2.9160    1.2050    0.0000 C   0  0  0  0  0  0  0  0  0  0  0  0
   -4.6020    0.8730    0.0000 C   0  0  0  0  0  0  0  0  0  0  0  0
   -4.7040    1.6030    0.0000 C   0  0  0  0  0  0  0  0  0  0  0  0
   -2.6180    1.9250    0.0000 C   0  0  1  0  0  0  0  0  0  0  0  0
   -2.5500    0.9640    0.0000 C   0  0  0  0  0  0  0  0  0  0  0  0
   -4.8610    1.2190    0.0000 C   0  0  0  0  0  0  0  0  0  0  0  0
   -2.2170    1.7900    0.0000 O   0  0  0  0  0  0  0  0  0  0  0  0
   -5.2820    1.1710    0.0000 C   0  0  0  0  0  0  0  0  0  0  0  0
   -5.7050    1.1250    0.0000 F   0  0  0  0  0  0  0  0  0  0  0  0
   -5.2480    0.7450    0.0000 F   0  0  0  0  0  0  0  0  0  0  0  0
   -5.3190    1.5830    0.0000 F   0  0  0  0  0  0  0  0  0  0  0  0
   -0.7410    3.0710    0.0000 N   0  0  0  0  0  0  0  0  0  0  0  0
   -0.3100    3.1450    0.0000 C   0  0  0  0  0  0  0  0  0  0  0  0
   -0.0330    2.8120    0.0000 O   0  0  0  0  0  0  0  0  0  0  0  0
   -0.1570    3.5480    0.0000 O   0  0  0  0  0  0  0  0  0  0  0  0
   -3.0040    0.1870    0.0000 C   0  0  0  0  0  0  0  0  0  0  0  0
   -3.0040   -0.3250    0.0000 C   0  0  0  0  0  0  0  0  0  0  0  0
   -2.5630   -0.5790    0.0000 C   0  0  0  0  0  0  0  0  0  0  0  0
   -2.1220   -0.3250    0.0000 C   0  0  0  0  0  0  0  0  0  0  0  0
   -2.1220    0.1870    0.0000 C   0  0  0  0  0  0  0  0  0  0  0  0
   -2.5630    0.4460    0.0000 N   0  0  0  0  0  0  0  0  0  0  0  0
   -2.5630   -1.0870    0.0000 C   0  0  0  0  0  0  0  0  0  0  0  0
   -3.0020   -1.3370    0.0000 F   0  0  0  0  0  0  0  0  0  0  0  0
   -2.1190   -1.3370    0.0000 F   0  0  0  0  0  0  0  0  0  0  0  0
   -3.0640   -0.9570    0.0000 F   0  0  0  0  0  0  0  0  0  0  0  0
   -1.1060    1.1160    0.0000 F   0  0  0  0  0  0  0  0  0  0  0  0
   -0.3520    1.1190    0.0000 F   0  0  0  0  0  0  0  0  0  0  0  0
   -2.6960    2.3430    0.0000 C   0  0  0  0  0  0  0  0  0  0  0  0
   -3.0930    2.4790    0.0000 C   0  0  0  0  0  0  0  0  0  0  0  0
 14 18  1  0  0  0  0
 15 19  2  0  0  0  0
 16 20  1  0  0  0  0
 17 21  1  0  0  0  0
 18 22  1  0  0  0  0
 19 23  1  0  0  0  0
 21 24  1  0  0  0  0
 23 25  1  0  0  0  0
 25 26  1  0  0  0  0
 25 27  1  0  0  0  0
 25 28  1  0  0  0  0
 17 18  2  0  0  0  0
 20 23  2  0  0  0  0
  2 24  1  0  0  0  0
  4  5  1  0  0  0  0
  7 29  1  0  0  0  0
 29 30  1  0  0  0  0
  5  6  2  0  0  0  0
  8 31  1  0  0  0  0
 30 31  1  0  0  0  0
  6  1  1  0  0  0  0
 30 32  2  0  0  0  0
 33 34  1  0  0  0  0
  5  7  1  0  0  0  0
  1  2  2  0  0  0  0
  7  8  2  0  0  0  0
  4  9  1  0  0  0  0
 33 38  1  0  0  0  0
 34 35  1  0  0  0  0
 35 36  1  0  0  0  0
 36 37  1  0  0  0  0
 37 38  1  0  0  0  0
  2  3  1  0  0  0  0
 35 39  1  0  0  0  0
  9 10  1  0  0  0  0
 39 40  1  0  0  0  0
 39 41  1  0  0  0  0
  3  4  2  0  0  0  0
 39 42  1  0  0  0  0
 22 38  1  0  0  0  0
 10 43  1  0  0  0  0
 11 12  1  0  0  0  0
 10 44  1  0  0  0  0
 11 13  1  0  0  0  0
 21 45  1  6  0  0  0
 11 14  2  0  0  0  0
 45 46  1  0  0  0  0
 12 15  1  0  0  0  0
 12 16  2  0  0  0  0
 13 17  1  0  0  0  0
M  END
>  <ID_NEW>
CPDPP3218

>  <pEC50>
7.064810044193976

$$$$

  SciTegic12180813082D

 38 42  0  0  0  0            999 V2000
    4.1465   -0.8714    0.0000 C   0  0
    4.1890   -1.7544    0.0000 N   0  0
    5.0451   -1.9881    0.0000 O   0  0
    5.5348   -1.2459    0.0000 C   0  0
    4.9787   -0.5562    0.0000 N   0  0
    6.4173   -1.2049    0.0000 O   0  0
   -1.9096    1.9543    0.0000 C   0  0
   -1.0944    1.5907    0.0000 S   0  0
   -0.5031    2.2519    0.0000 C   0  0
   -0.9557    3.0230    0.0000 C   0  0
   -1.8203    2.8358    0.0000 N   0  0
   -0.5981    3.8323    0.0000 C   0  0
    0.3803    2.1645    0.0000 C   0  0
    0.7436    1.3579    0.0000 O   0  0
    0.9002    2.8754    0.0000 C   0  0
    1.7835    2.7882    0.0000 F   0  0
    0.5368    3.6820    0.0000 F   0  0
    1.4593    2.1904    0.0000 F   0  0
   -2.6812    1.5090    0.0000 C   0  0
    3.2052    0.3390    0.0000 C   0  0
    2.3823    0.6800    0.0000 C   0  0
    1.6826    0.1385    0.0000 C   0  0
    1.8046   -0.7437    0.0000 C   0  0
    2.6279   -1.0822    0.0000 C   0  0
    3.3286   -0.5389    0.0000 C   0  0
    0.8614    0.4777    0.0000 C   0  0
    2.7489   -1.9583    0.0000 C   0  0
    2.4224   -2.7806    0.0000 C   0  0
    3.2987   -2.6597    0.0000 C   0  0
   -4.2948    0.7203    0.0000 C   0  0
   -5.0582    0.2740    0.0000 C   0  0
   -5.8274    0.7174    0.0000 F   0  0
   -5.0524   -0.6118    0.0000 F   0  0
   -5.8327   -0.1639    0.0000 F   0  0
   -3.4270    2.0040    0.0000 C   0  0
   -4.2326    1.6160    0.0000 C   0  0
   -3.5600    0.2294    0.0000 C   0  0
   -2.7545    0.6217    0.0000 C   0  0
  1  2  2  0
  2  3  1  0
  3  4  1  0
  4  5  1  0
  5  1  1  0
  4  6  2  0
 15 16  1  0
 15 17  1  0
 15 18  1  0
  7 19  1  0
  7  8  1  0
  8  9  1  0
  9 10  2  0
 10 11  1  0
 11  7  2  0
 10 12  1  0
  9 13  1  0
 13 14  1  0
 13 15  1  0
 20 21  2  0
 21 22  1  0
 22 23  2  0
 23 24  1  0
 24 25  2  0
 25 20  1  0
 25  1  1  0
 22 26  1  0
 26 14  1  0
 24 27  1  0
 28 27  1  0
 29 28  1  0
 27 29  1  0
 30 31  1  0
 31 32  1  0
 31 33  1  0
 31 34  1  0
 35 36  1  0
 35 19  1  0
 36 30  1  0
 30 37  1  0
 37 38  1  0
 38 19  1  0
M  END
>  <ID_NEW>
CPDPP3219

>  <pEC50>
7.063648605778743

$$$$

  SciTegic12180812582D

 40 44  0  0  0  0            999 V2000
   -3.5122    1.4506    0.0000 C   0  0
   -3.9831    1.3918    0.0000 C   0  0
   -3.2616    1.8641    0.0000 S   0  0
   -3.2005    1.0993    0.0000 N   0  0
   -4.1606    0.9589    0.0000 C   0  0
   -4.2542    1.7734    0.0000 C   0  0
   -2.7955    1.7550    0.0000 C   0  0
   -2.7666    1.2664    0.0000 C   0  0
   -4.6246    0.9011    0.0000 C   0  0
   -4.7347    1.7076    0.0000 C   0  0
   -2.4391    2.0620    0.0000 C   0  0
   -2.3697    1.0021    0.0000 C   0  0
   -4.9118    1.2809    0.0000 C   0  0
   -1.9977    1.9066    0.0000 O   0  0
   -5.3723    1.2213    0.0000 C   0  0
   -5.8333    1.1848    0.0000 F   0  0
   -5.3303    0.7589    0.0000 F   0  0
   -5.4135    1.6853    0.0000 F   0  0
   -2.3969    0.5263    0.0000 N   0  0
   -2.8289    0.3162    0.0000 C   0  0
   -2.8578   -0.1600    0.0000 C   0  0
   -2.4672   -0.4531    0.0000 C   0  0
   -2.0331   -0.2138    0.0000 C   0  0
   -2.0021    0.2644    0.0000 C   0  0
   -2.1807   -0.9284    0.0000 F   0  0
   -2.7000   -0.8250    0.0000 F   0  0
   -1.6424    2.2112    0.0000 C   0  0
   -1.2014    2.0548    0.0000 C   0  0
   -0.8463    2.3590    0.0000 C   0  0
   -0.9323    2.8195    0.0000 C   0  0
   -1.3766    2.9743    0.0000 C   0  0
   -1.7298    2.6691    0.0000 C   0  0
   -0.4054    2.2035    0.0000 O   0  0
   -0.3195    1.7439    0.0000 C   0  0
   -0.5770    3.1249    0.0000 C   0  0
   -0.0016    3.0491    0.0000 N   0  0
   -0.5639    3.5770    0.0000 N   0  0
   -0.0920    3.7991    0.0000 O   0  0
    0.2458    3.4542    0.0000 C   0  0
    0.7140    3.6403    0.0000 O   0  0
 39 36  1  0
  9 13  1  0
 11 14  1  0
 13 15  1  0
 15 16  1  0
 15 17  1  0
 15 18  1  0
  7  8  2  0
 10 13  2  0
 12 19  1  0
 19 20  1  0
 19 24  1  0
 20 21  1  0
 21 22  1  0
 22 23  1  0
 23 24  1  0
 22 26  1  0
 22 25  1  0
 14 27  1  0
 27 28  2  0
 28 29  1  0
  1  2  1  0
 29 30  2  0
  1  3  1  0
 30 31  1  0
  1  4  2  0
 31 32  2  0
 32 27  1  0
  2  5  1  0
 29 33  1  0
  2  6  2  0
 33 34  1  0
  3  7  1  0
 30 35  1  0
  4  8  1  0
 35 36  1  0
  5  9  2  0
 35 37  2  0
  6 10  1  0
 37 38  1  0
  7 11  1  0
 38 39  1  0
  8 12  1  0
 39 40  2  0
M  END
>  <ID_NEW>
CPDPP3220

>  <pEC50>
7.053123463747445

$$$$

  SciTegic12180813002D

 36 39  0  0  0  0            999 V2000
   -0.3681    2.7709    0.0000 C   0  0
   -0.3693    2.1435    0.0000 C   0  0
    0.1747    1.8306    0.0000 C   0  0
    0.7162    2.1440    0.0000 C   0  0
    0.7133    2.7745    0.0000 C   0  0
    0.1729    3.0836    0.0000 C   0  0
    1.2532    3.0893    0.0000 C   0  0
    1.7875    2.7792    0.0000 N   0  0
    2.2292    3.2250    0.0000 C   0  0
    2.8292    3.0667    0.0000 O   0  0
    2.0667    3.8292    0.0000 O   0  0
    1.4417    3.8333    0.0000 N   0  0
    1.3375    2.1458    0.0000 O   0  0
    1.4958    1.5458    0.0000 C   0  0
   -0.9105    1.8311    0.0000 O   0  0
   -1.4518    2.1436    0.0000 C   0  0
   -1.9931    1.8312    0.0000 C   0  0
   -2.5644    2.0874    0.0000 S   0  0
   -2.9826    1.6230    0.0000 C   0  0
   -2.6702    1.0817    0.0000 N   0  0
   -2.0589    1.2116    0.0000 C   0  0
   -1.5946    0.7932    0.0000 C   0  0
   -3.6042    1.6884    0.0000 C   0  0
   -3.8558    2.2587    0.0000 C   0  0
   -4.4768    2.3243    0.0000 C   0  0
   -4.8448    1.8183    0.0000 C   0  0
   -4.5875    1.2452    0.0000 C   0  0
   -3.9673    1.1824    0.0000 C   0  0
   -5.4665    1.8829    0.0000 C   0  0
   -5.7214    2.4536    0.0000 F   0  0
   -5.8332    1.3768    0.0000 F   0  0
   -5.2432    2.4667    0.0000 F   0  0
   -1.7249    0.1819    0.0000 O   0  0
   -1.2606   -0.2365    0.0000 C   0  0
   -1.3908   -0.8478    0.0000 O   0  0
   -0.6661   -0.0437    0.0000 C   0  0
  1  2  2  0
  2  3  1  0
  3  4  2  0
  4  5  1  0
  5  6  2  0
  6  1  1  0
  5  7  1  0
  7  8  1  0
  8  9  1  0
  9 10  2  0
  9 11  1  0
 11 12  1  0
 12  7  2  0
  4 13  1  0
 13 14  1  0
  2 15  1  0
 15 16  1  0
 16 17  1  0
 17 18  1  0
 18 19  1  0
 19 20  2  0
 20 21  1  0
 21 17  2  0
 21 22  1  0
 19 23  1  0
 23 24  2  0
 24 25  1  0
 25 26  2  0
 26 27  1  0
 27 28  2  0
 28 23  1  0
 26 29  1  0
 29 30  1  0
 29 31  1  0
 29 32  1  0
 22 33  1  0
 33 34  1  0
 34 35  2  0
 34 36  1  0
M  END
>  <ID_NEW>
CPDPP3221

>  <pEC50>
7.052198206837789

$$$$

  -MTS-   10172316532D 0   0.00000     0.00000     0

 43 47  0  0  0  0  0  0  0  0999 V2000
   -4.2080   -1.7540    0.0000 C   0  0  0  0  0  0  0  0  0  0  0  0
   -4.2080   -2.6920    0.0000 C   0  0  1  0  0  0  0  0  0  0  0  0
   -3.4000   -3.1580    0.0000 C   0  0  0  0  0  0  0  0  0  0  0  0
   -2.5880   -2.6920    0.0000 C   0  0  0  0  0  0  0  0  0  0  0  0
   -2.5880   -1.7540    0.0000 C   0  0  2  0  0  0  0  0  0  0  0  0
   -3.4000   -1.2830    0.0000 C   0  0  0  0  0  0  0  0  0  0  0  0
   -5.0200   -3.1600    0.0000 C   0  0  0  0  0  0  0  0  0  0  0  0
   -1.7760   -1.2860    0.0000 C   0  0  0  0  0  0  0  0  0  0  0  0
   -5.8320   -2.6910    0.0000 F   0  0  0  0  0  0  0  0  0  0  0  0
   -5.0200   -4.0980    0.0000 F   0  0  0  0  0  0  0  0  0  0  0  0
   -5.2630   -2.2550    0.0000 F   0  0  0  0  0  0  0  0  0  0  0  0
   -0.9170   -1.6660    0.0000 N   0  0  0  0  0  0  0  0  0  0  0  0
   -0.2890   -0.9690    0.0000 C   0  0  0  0  0  0  0  0  0  0  0  0
   -0.7570   -0.1570    0.0000 C   0  0  0  0  0  0  0  0  0  0  0  0
   -1.6750   -0.3510    0.0000 S   0  0  0  0  0  0  0  0  0  0  0  0
    0.6430   -1.0680    0.0000 C   0  0  0  0  0  0  0  0  0  0  0  0
    1.0230   -1.9250    0.0000 N   0  0  0  0  0  0  0  0  0  0  0  0
    0.4670   -2.6810    0.0000 C   0  0  0  0  0  0  0  0  0  0  0  0
    0.8430   -3.5350    0.0000 C   0  0  0  0  0  0  0  0  0  0  0  0
    1.7760   -3.6380    0.0000 C   0  0  0  0  0  0  0  0  0  0  0  0
    2.3300   -2.8810    0.0000 C   0  0  0  0  0  0  0  0  0  0  0  0
    1.9520   -2.0200    0.0000 C   0  0  0  0  0  0  0  0  0  0  0  0
    2.1530   -4.4960    0.0000 C   0  0  0  0  0  0  0  0  0  0  0  0
    1.5980   -5.2520    0.0000 F   0  0  0  0  0  0  0  0  0  0  0  0
    3.0850   -4.5990    0.0000 F   0  0  0  0  0  0  0  0  0  0  0  0
    1.2260   -4.6390    0.0000 F   0  0  0  0  0  0  0  0  0  0  0  0
   -0.3750    0.6990    0.0000 C   0  0  0  0  0  0  0  0  0  0  0  0
    0.5570    0.7960    0.0000 O   0  0  0  0  0  0  0  0  0  0  0  0
   -0.9260    1.4580    0.0000 C   0  0  0  0  0  0  0  0  0  0  0  0
   -1.8670    1.4620    0.0000 C   0  0  0  0  0  0  0  0  0  0  0  0
    1.3620    1.2710    0.0000 C   0  0  0  0  0  0  0  0  0  0  0  0
    2.1760    0.8070    0.0000 C   0  0  0  0  0  0  0  0  0  0  0  0
    2.9810    1.2810    0.0000 C   0  0  0  0  0  0  0  0  0  0  0  0
    2.9730    2.2170    0.0000 C   0  0  0  0  0  0  0  0  0  0  0  0
    2.1530    2.6770    0.0000 C   0  0  0  0  0  0  0  0  0  0  0  0
    1.3520    2.2000    0.0000 C   0  0  0  0  0  0  0  0  0  0  0  0
    3.7960    0.8190    0.0000 F   0  0  0  0  0  0  0  0  0  0  0  0
    3.7800    2.6940    0.0000 C   0  0  0  0  0  0  0  0  0  0  0  0
    4.5870    2.2290    0.0000 N   0  0  0  0  0  0  0  0  0  0  0  0
    5.2500    2.8960    0.0000 C   0  0  0  0  0  0  0  0  0  0  0  0
    6.1560    2.6560    0.0000 O   0  0  0  0  0  0  0  0  0  0  0  0
    5.2460    3.8330    0.0000 O   0  0  0  0  0  0  0  0  0  0  0  0
    3.7750    3.6330    0.0000 N   0  0  0  0  0  0  0  0  0  0  0  0
  1  2  1  0  0  0  0
  1  6  1  0  0  0  0
  2  3  1  0  0  0  0
  3  4  1  0  0  0  0
  4  5  1  0  0  0  0
  5  6  1  0  0  0  0
  2  7  1  1  0  0  0
  5  8  1  6  0  0  0
  7  9  1  0  0  0  0
  7 10  1  0  0  0  0
  7 11  1  0  0  0  0
  8 12  2  0  0  0  0
 12 13  1  0  0  0  0
 13 14  2  0  0  0  0
 14 15  1  0  0  0  0
 15  8  1  0  0  0  0
 13 16  1  0  0  0  0
 16 17  1  0  0  0  0
 17 18  1  0  0  0  0
 17 22  1  0  0  0  0
 18 19  1  0  0  0  0
 19 20  1  0  0  0  0
 20 21  1  0  0  0  0
 21 22  1  0  0  0  0
 20 23  1  0  0  0  0
 23 24  1  0  0  0  0
 23 25  1  0  0  0  0
 23 26  1  0  0  0  0
 14 27  1  0  0  0  0
 27 28  1  0  0  0  0
 27 29  1  0  0  0  0
 29 30  1  0  0  0  0
 28 31  1  0  0  0  0
 31 32  2  0  0  0  0
 32 33  1  0  0  0  0
 33 34  2  0  0  0  0
 34 35  1  0  0  0  0
 35 36  2  0  0  0  0
 36 31  1  0  0  0  0
 33 37  1  0  0  0  0
 34 38  1  0  0  0  0
 38 39  1  0  0  0  0
 39 40  1  0  0  0  0
 40 41  2  0  0  0  0
 40 42  1  0  0  0  0
 38 43  2  0  0  0  0
 43 42  1  0  0  0  0
V    2 M1
V    5 M1
M  END
>  <ID_NEW>
CPDPP3222

>  <pEC50>
7.046363827881878

$$$$

  SciTegic12180813082D

 32 34  0  0  0  0            999 V2000
   -2.3221    2.8601    0.0000 C   0  0
   -1.7518    3.2249    0.0000 S   0  0
   -1.3856    2.6554    0.0000 O   0  0
   -2.1181    3.7981    0.0000 O   0  0
   -1.1798    3.5943    0.0000 N   0  0
   -4.6664    2.1654    0.0000 C   0  0
   -4.0780    1.8289    0.0000 C   0  0
   -3.4916    2.1716    0.0000 C   0  0
   -2.9025    1.8339    0.0000 C   0  0
   -2.3165    2.1801    0.0000 C   0  0
   -2.9155    3.1922    0.0000 C   0  0
   -3.4985    2.8478    0.0000 C   0  0
   -0.5744    3.2853    0.0000 C   0  0
   -0.4737    2.6122    0.0000 S   0  0
    0.1992    2.5070    0.0000 C   0  0
    0.5082    3.1123    0.0000 N   0  0
    0.0256    3.5924    0.0000 N   0  0
    0.5060    1.9005    0.0000 C   0  0
    0.1348    1.3301    0.0000 F   0  0
    1.1840    1.8644    0.0000 F   0  0
   -5.8269    0.1218    0.0000 C   0  0
   -5.2397   -0.2190    0.0000 C   0  0
   -5.2468    1.1394    0.0000 C   0  0
   -5.8313    0.7976    0.0000 N   0  0
   -4.6549    0.8048    0.0000 C   0  0
   -4.6543    0.1205    0.0000 C   0  0
   -5.2529    1.8185    0.0000 N   0  0
   -5.2399   -0.8981    0.0000 C   0  0
   -5.2385   -1.5181    0.0000 F   0  0
   -5.7885   -1.3484    0.0000 F   0  0
   -4.6883   -1.3487    0.0000 F   0  0
   -4.0678    1.1477    0.0000 Cl  0  0
  9 10  1  0
 10  1  2  0
  1 11  1  0
 11 12  2  0
 12  8  1  0
  5 13  1  0
 13 14  1  0
 14 15  1  0
 15 16  2  0
 16 17  1  0
 17 13  2  0
 15 18  1  0
 18 19  1  0
 18 20  1  0
  1  2  1  0
  2  3  2  0
  2  4  2  0
  2  5  1  0
 21 22  2  0
 22 26  1  0
 25 23  1  0
 23 24  2  0
 24 21  1  0
 25 26  2  0
 23 27  1  0
 27  6  1  0
  6  7  1  0
  7  8  1  0
  8  9  2  0
 22 28  1  0
 28 29  1  0
 28 30  1  0
 28 31  1  0
 25 32  1  0
M  END
>  <ID_NEW>
CPDPP3223

>  <pEC50>
7.027233052241615

$$$$

  SciTegic12180813072D

 36 39  0  0  0  0            999 V2000
   -4.6155    2.0318    0.0000 C   0  0
   -4.2990    1.4819    0.0000 C   0  0
   -4.2967    2.5836    0.0000 C   0  0
   -3.6579    1.4825    0.0000 C   0  0
   -3.6567    2.5862    0.0000 C   0  0
   -3.3358    2.0297    0.0000 C   0  0
   -3.3325    0.9246    0.0000 F   0  0
   -2.6952    2.0307    0.0000 C   0  0
   -2.3753    1.4807    0.0000 O   0  0
    1.4601    3.5454    0.0000 N   0  0
    2.0103    3.2240    0.0000 C   0  0
    2.1447    2.5927    0.0000 N   0  0
    2.7778    2.5249    0.0000 N   0  0
    3.0408    3.1001    0.0000 C   0  0
    2.5702    3.5386    0.0000 S   0  0
    3.6726    3.2275    0.0000 C   0  0
   -0.7584    2.9045    0.0000 C   0  0
   -0.7584    2.2671    0.0000 C   0  0
   -1.3628    3.1019    0.0000 C   0  0
   -0.2100    3.2281    0.0000 C   0  0
   -1.3664    2.0733    0.0000 C   0  0
   -0.2121    1.9470    0.0000 C   0  0
   -1.7384    2.5834    0.0000 C   0  0
    0.3426    2.9057    0.0000 C   0  0
    0.3452    2.2692    0.0000 C   0  0
   -2.3763    2.5819    0.0000 N   0  0
    0.9037    3.2284    0.0000 S   0  0
    1.2235    2.6675    0.0000 O   0  0
    0.5830    3.7802    0.0000 O   0  0
   -5.2509    2.0326    0.0000 C   0  0
   -4.6179    0.9299    0.0000 F   0  0
   -5.8297    2.0306    0.0000 F   0  0
   -5.6704    2.5451    0.0000 F   0  0
   -5.6717    1.5157    0.0000 F   0  0
    4.0942    2.7493    0.0000 C   0  0
    3.8759    3.8317    0.0000 C   0  0
 27 10  1  0
 27 28  2  0
 27 29  2  0
 24 27  1  0
 10 11  1  0
 11 12  2  0
 12 13  1  0
 13 14  2  0
 14 15  1  0
 15 11  1  0
 14 16  1  0
 17 18  2  0
 17 19  1  0
 17 20  1  0
 18 21  1  0
 18 22  1  0
 19 23  1  0
 20 24  2  0
 22 25  2  0
 23 26  1  0
 21 23  1  0
 24 25  1  0
  8  9  2  0
  5  6  1  0
  1  2  2  0
  1  3  1  0
  2  4  1  0
  3  5  2  0
  4  6  2  0
  4  7  1  0
  6  8  1  0
 26  8  1  0
  1 30  1  0
  2 31  1  0
 30 32  1  0
 30 33  1  0
 30 34  1  0
 16 35  1  0
 16 36  1  0
M  END
>  <ID_NEW>
CPDPP3224

>  <pEC50>
7.022940250445827

$$$$

  SciTegic12180813102D

 37 41  0  0  0  0            999 V2000
    1.4195   -4.7208    0.0000 C   0  0
    1.4183   -5.5482    0.0000 C   0  0
    2.1331   -5.9611    0.0000 C   0  0
    2.8496   -5.5477    0.0000 C   0  0
    2.8467   -4.7172    0.0000 C   0  0
    2.1313   -4.3081    0.0000 C   0  0
    3.5596   -4.3020    0.0000 C   0  0
    4.3108   -4.6343    0.0000 N   0  0
    4.8613   -4.0186    0.0000 C   0  0
    4.4444   -3.3053    0.0000 C   0  0
    3.6377   -3.4827    0.0000 S   0  0
    5.6821   -4.1012    0.0000 C   0  0
    4.7751   -2.5459    0.0000 C   0  0
    0.7035   -5.9601    0.0000 C   0  0
    0.7028   -6.7851    0.0000 F   0  0
   -0.0106   -5.5470    0.0000 F   0  0
    1.5002   -6.1743    0.0000 F   0  0
    5.5948   -2.4530    0.0000 O   0  0
    4.2848   -1.8824    0.0000 C   0  0
    3.5667   -1.4668    0.0000 F   0  0
    3.5667   -2.2876    0.0000 F   0  0
    4.1238   -0.4626    0.0000 C   0  0
    4.6140   -1.1240    0.0000 C   0  0
    4.9417   -0.3687    0.0000 C   0  0
    7.1277   -1.5708    0.0000 C   0  0
    7.1266   -2.4565    0.0000 C   0  0
    7.8914   -2.8986    0.0000 C   0  0
    8.6578   -2.4561    0.0000 C   0  0
    8.6550   -1.5672    0.0000 C   0  0
    7.8896   -1.1289    0.0000 C   0  0
    6.3618   -2.8976    0.0000 C   0  0
    9.4234   -1.1202    0.0000 C   0  0
   10.2335   -1.4786    0.0000 N   0  0
   10.8262   -0.8160    0.0000 O   0  0
   10.3792   -0.0475    0.0000 C   0  0
    9.5103   -0.2353    0.0000 N   0  0
   10.8208    0.7250    0.0000 O   0  0
 19 23  1  0
  5  7  1  0
  8  9  1  0
 19 20  1  0
  4  5  1  0
 19 21  1  0
  2  3  1  0
  5  6  2  0
 23 22  1  0
 24 23  1  0
 22 24  1  0
  7  8  2  0
  9 10  2  0
 10 11  1  0
 11  7  1  0
  6  1  1  0
 10 13  1  0
  1  2  2  0
  9 12  1  0
  2 14  1  0
 14 15  1  0
 14 16  1  0
 26 27  1  0
 27 28  2  0
 28 29  1  0
 25 26  2  0
 29 30  2  0
 30 25  1  0
 31 18  1  0
 29 32  1  0
 26 31  1  0
 32 33  2  0
 14 17  1  0
 13 18  1  0
 13 19  1  0
 33 34  1  0
 34 35  1  0
 35 36  1  0
 36 32  1  0
  3  4  2  0
 35 37  2  0
M  END
>  <ID_NEW>
CPDPP3225

>  <pEC50>
7.017614320832207

$$$$

  -MTS-   10172316532D 0   0.00000     0.00000     0

 34 37  0  0  1  0  0  0  0  0999 V2000
   -0.4330   -1.2060    0.0000 C   0  0  0  0  0  0  0  0  0  0  0  0
   -1.1170   -1.2940    0.0000 C   0  0  0  0  0  0  0  0  0  0  0  0
   -0.0690   -0.6120    0.0000 S   0  0  0  0  0  0  0  0  0  0  0  0
    0.0130   -1.7240    0.0000 N   0  0  0  0  0  0  0  0  0  0  0  0
   -1.3740   -1.9310    0.0000 C   0  0  0  0  0  0  0  0  0  0  0  0
   -1.5100   -0.7450    0.0000 C   0  0  0  0  0  0  0  0  0  0  0  0
    0.6020   -0.7670    0.0000 C   0  0  0  0  0  0  0  0  0  0  0  0
    0.6470   -1.4860    0.0000 C   0  0  0  0  0  0  0  0  0  0  0  0
   -2.0470   -2.0190    0.0000 C   0  0  0  0  0  0  0  0  0  0  0  0
   -2.2120   -0.8310    0.0000 C   0  0  0  0  0  0  0  0  0  0  0  0
    1.1290   -0.3220    0.0000 C   0  0  1  0  0  0  0  0  0  0  0  0
    1.2370   -1.8670    0.0000 C   0  0  0  0  0  0  0  0  0  0  0  0
   -2.4640   -1.4550    0.0000 C   0  0  0  0  0  0  0  0  0  0  0  0
    1.8760   -0.5780    0.0000 O   0  0  0  0  0  0  0  0  0  0  0  0
   -3.1380   -1.5440    0.0000 C   0  0  0  0  0  0  0  0  0  0  0  0
   -3.8120   -1.6090    0.0000 F   0  0  0  0  0  0  0  0  0  0  0  0
   -3.0750   -2.2230    0.0000 F   0  0  0  0  0  0  0  0  0  0  0  0
   -3.2000   -0.8750    0.0000 F   0  0  0  0  0  0  0  0  0  0  0  0
    2.6090   -0.8270    0.0000 C   0  0  0  0  0  0  0  0  0  0  0  0
    2.7670   -1.5780    0.0000 C   0  0  0  0  0  0  0  0  0  0  0  0
    3.4910   -1.8150    0.0000 C   0  0  0  0  0  0  0  0  0  0  0  0
    4.0700   -1.3080    0.0000 C   0  0  0  0  0  0  0  0  0  0  0  0
    3.9110   -0.5450    0.0000 C   0  0  0  0  0  0  0  0  0  0  0  0
    3.1740   -0.3110    0.0000 C   0  0  0  0  0  0  0  0  0  0  0  0
    3.6550   -2.5750    0.0000 O   0  0  0  0  0  0  0  0  0  0  0  0
    4.8040   -1.5360    0.0000 C   0  0  0  0  0  0  0  0  0  0  0  0
    5.0820   -2.3130    0.0000 N   0  0  0  0  0  0  0  0  0  0  0  0
    0.9230    0.7840    0.0000 C   0  0  0  0  0  0  0  0  0  0  0  0
    1.7740    1.5180    0.0000 C   0  0  0  0  0  0  0  0  0  0  0  0
    3.0780   -3.0920    0.0000 C   0  0  0  0  0  0  0  0  0  0  0  0
    5.3780   -1.0200    0.0000 N   0  0  0  0  0  0  0  0  0  0  0  0
    5.9730   -1.4230    0.0000 O   0  0  0  0  0  0  0  0  0  0  0  0
    5.8920   -2.2320    0.0000 C   0  0  0  0  0  0  0  0  0  0  0  0
    6.3590   -2.6170    0.0000 O   0  0  0  0  0  0  0  0  0  0  0  0
 33 34  2  0  0  0  0
 15 16  1  0  0  0  0
 15 17  1  0  0  0  0
 15 18  1  0  0  0  0
  7  8  2  0  0  0  0
 10 13  2  0  0  0  0
 14 19  1  0  0  0  0
 19 20  2  0  0  0  0
 20 21  1  0  0  0  0
 21 22  2  0  0  0  0
 22 23  1  0  0  0  0
 23 24  2  0  0  0  0
 24 19  1  0  0  0  0
  1  2  1  0  0  0  0
 21 25  1  0  0  0  0
  1  3  1  0  0  0  0
 22 26  1  0  0  0  0
  1  4  2  0  0  0  0
 26 27  1  0  0  0  0
  2  5  1  0  0  0  0
 11 28  1  6  0  0  0
  2  6  2  0  0  0  0
 28 29  1  0  0  0  0
  3  7  1  0  0  0  0
 25 30  1  0  0  0  0
  4  8  1  0  0  0  0
  5  9  2  0  0  0  0
  6 10  1  0  0  0  0
  7 11  1  0  0  0  0
  8 12  1  0  0  0  0
 26 31  2  0  0  0  0
  9 13  1  0  0  0  0
 31 32  1  0  0  0  0
 11 14  1  0  0  0  0
 27 33  1  0  0  0  0
 32 33  1  0  0  0  0
 13 15  1  0  0  0  0
M  END
>  <ID_NEW>
CPDPP3226

>  <pEC50>
7.002733155861187

$$$$

  SciTegic12180813002D

 37 39  0  0  0  0            999 V2000
    3.4243   -5.0226    0.0000 C   0  0
    3.4237   -5.8476    0.0000 O   0  0
    2.7042   -4.6084    0.0000 C   0  0
    2.7015   -3.7765    0.0000 C   0  0
    1.9822   -3.3623    0.0000 C   0  0
    1.2624   -3.7789    0.0000 C   0  0
    1.2664   -4.6140    0.0000 C   0  0
    1.9863   -5.0244    0.0000 C   0  0
    1.9792   -5.8459    0.0000 O   0  0
    0.5468   -3.3685    0.0000 C   0  0
    0.5444   -2.5435    0.0000 F   0  0
   -0.1665   -3.7830    0.0000 F   0  0
   -0.0416   -2.7792    0.0000 F   0  0
    4.2000   -4.5625    0.0000 N   0  0
    4.9125   -4.1459    0.0000 C   0  0
    5.4958   -4.7292    0.0000 C   0  0
    6.0792   -4.1417    0.0000 C   0  0
    6.8800   -4.3561    0.0000 C   0  0
    7.4630   -3.7694    0.0000 C   0  0
    7.2461   -2.9695    0.0000 C   0  0
    6.4408   -2.7595    0.0000 C   0  0
    5.8612   -3.3478    0.0000 C   0  0
    7.8292   -2.3792    0.0000 S   0  0
    7.6125   -1.5792    0.0000 O   0  0
    8.2375   -3.0917    0.0000 O   0  0
    8.5417   -1.9625    0.0000 N   0  0
    9.2542   -2.3750    0.0000 C   0  0
    9.9667   -1.9584    0.0000 S   0  0
   10.6792   -2.3709    0.0000 C   0  0
    9.4667   -3.1709    0.0000 N   0  0
   10.4625   -3.1667    0.0000 N   0  0
   11.5042   -2.3709    0.0000 C   0  0
    1.2612   -6.2522    0.0000 C   0  0
    1.2541   -7.0772    0.0000 C   0  0
   11.9167   -3.0853    0.0000 F   0  0
   11.9167   -1.6564    0.0000 F   0  0
   11.2906   -3.1678    0.0000 F   0  0
  3  4  2  0
  8  9  1  0
  4  5  1  0
  1  2  2  0
  5  6  2  0
  1  3  1  0
  6 10  1  0
 15 16  1  0
 16 17  1  0
 17 18  2  0
 18 19  1  0
 19 20  2  0
 20 21  1  0
 21 22  2  0
 22 17  1  0
 20 23  1  0
 23 24  2  0
 23 25  2  0
 23 26  1  0
 26 27  1  0
 27 28  1  0
 28 29  1  0
 27 30  2  0
 29 31  2  0
 30 31  1  0
 29 32  1  0
 14 15  1  0
  1 14  1  0
  6  7  1  0
  9 33  1  0
 10 11  1  0
 33 34  1  0
  7  8  2  0
 10 12  1  0
 32 35  1  0
  8  3  1  0
 32 36  1  0
 10 13  1  0
 32 37  1  0
M  END
>  <ID_NEW>
CPDPP3227

>  <pEC50>
6.982758574453399

$$$$

  SciTegic12180812472D

 35 37  0  0  0  0            999 V2000
   10.8106   -5.0744    0.0000 C   0  0
   10.8094   -5.9017    0.0000 C   0  0
   11.5243   -6.3146    0.0000 C   0  0
   12.2407   -5.9013    0.0000 C   0  0
   12.2378   -5.0707    0.0000 C   0  0
   11.5225   -4.6616    0.0000 C   0  0
   10.0946   -6.3137    0.0000 C   0  0
   12.9508   -4.6555    0.0000 S   0  0
    9.3805   -5.9006    0.0000 C   0  0
    8.6583   -6.3125    0.0000 N   0  0
   12.5329   -3.9369    0.0000 O   0  0
   13.3579   -5.3661    0.0000 O   0  0
   13.6698   -4.2511    0.0000 N   0  0
   14.3796   -4.6716    0.0000 C   0  0
   14.4534   -5.4922    0.0000 N   0  0
   15.2584   -5.6728    0.0000 N   0  0
   15.6789   -4.9629    0.0000 C   0  0
   15.1337   -4.3438    0.0000 S   0  0
   16.5003   -4.8858    0.0000 C   0  0
   16.9796   -5.5586    0.0000 C   0  0
   16.8465   -4.1359    0.0000 C   0  0
    7.9493   -6.7309    0.0000 C   0  0
    7.9486   -7.5559    0.0000 O   0  0
    7.2292   -6.3167    0.0000 C   0  0
    7.2265   -5.4848    0.0000 C   0  0
    6.5072   -5.0706    0.0000 C   0  0
    5.7874   -5.4872    0.0000 C   0  0
    5.7914   -6.3223    0.0000 C   0  0
    6.5112   -6.7327    0.0000 C   0  0
    6.5042   -7.5542    0.0000 O   0  0
    6.9125   -8.2667    0.0000 C   0  0
    5.0717   -5.0768    0.0000 C   0  0
    5.0694   -4.2518    0.0000 F   0  0
    4.3585   -5.4913    0.0000 F   0  0
    4.4833   -4.4875    0.0000 F   0  0
  8 11  2  0
  8 12  2  0
  8 13  1  0
 13 14  1  0
 14 15  2  0
 15 16  1  0
 16 17  2  0
 17 18  1  0
 18 14  1  0
 17 19  1  0
 19 20  1  0
 19 21  1  0
  1  2  2  0
  2  3  1  0
  3  4  2  0
  4  5  1  0
  5  6  2  0
  6  1  1  0
  2  7  1  0
  5  8  1  0
  7  9  1  0
  9 10  1  0
 24 25  2  0
 29 30  1  0
 22 10  1  0
 30 31  1  0
 25 26  1  0
 22 23  2  0
 26 27  2  0
 22 24  1  0
 27 32  1  0
 27 28  1  0
 32 33  1  0
 28 29  2  0
 32 34  1  0
 29 24  1  0
 32 35  1  0
M  END
>  <ID_NEW>
CPDPP3228

>  <pEC50>
6.942105170198462

$$$$

  SciTegic12180813002D

 42 46  0  0  0  0            999 V2000
    2.9902   -4.7500    0.0000 C   0  0
    2.9891   -5.3774    0.0000 C   0  0
    3.5331   -5.6902    0.0000 C   0  0
    4.0745   -5.3769    0.0000 C   0  0
    4.0716   -4.7464    0.0000 C   0  0
    3.5313   -4.4372    0.0000 C   0  0
    2.4478   -5.6898    0.0000 C   0  0
    1.9065   -5.3773    0.0000 F   0  0
    2.4477   -6.3148    0.0000 F   0  0
    2.2861   -5.0861    0.0000 F   0  0
    4.6116   -4.4316    0.0000 C   0  0
    5.1837   -4.6850    0.0000 N   0  0
    5.5999   -4.2188    0.0000 C   0  0
    5.2851   -3.6788    0.0000 C   0  0
    4.6743   -3.8114    0.0000 S   0  0
    6.2218   -4.2815    0.0000 C   0  0
    6.4784   -4.8513    0.0000 N   0  0
    5.5368   -3.1067    0.0000 C   0  0
    6.1581   -3.0387    0.0000 O   0  0
    6.6917   -2.7209    0.0000 C   0  0
    7.2334   -3.0262    0.0000 C   0  0
    7.7666   -2.7089    0.0000 C   0  0
    7.7584   -2.0873    0.0000 C   0  0
    7.2126   -1.7843    0.0000 C   0  0
    6.6817   -2.1034    0.0000 C   0  0
    8.3119   -3.0143    0.0000 O   0  0
    8.3202   -3.6392    0.0000 C   0  0
    8.2950   -1.7667    0.0000 C   0  0
    8.8917   -1.9209    0.0000 N   0  0
    9.2000   -1.3792    0.0000 C   0  0
    9.8250   -1.3754    0.0000 O   0  0
    8.7542   -0.9334    0.0000 O   0  0
    7.9750   -1.2209    0.0000 N   0  0
    6.1099   -5.3557    0.0000 C   0  0
    6.3641   -5.9237    0.0000 C   0  0
    6.9858   -5.9896    0.0000 N   0  0
    7.3527   -5.4827    0.0000 C   0  0
    7.0978   -4.9099    0.0000 C   0  0
    7.2917   -6.5250    0.0000 S   0  0
    7.8292   -6.2084    0.0000 O   0  0
    6.7500   -6.8334    0.0000 O   0  0
    7.6012   -7.0680    0.0000 C   0  0
  1  2  2  0
  2  3  1  0
  3  4  2  0
  4  5  1  0
  5  6  2  0
  6  1  1  0
  2  7  1  0
  7  8  1  0
  7  9  1  0
  7 10  1  0
  5 11  1  0
 11 12  2  0
 12 13  1  0
 13 14  2  0
 14 15  1  0
 15 11  1  0
 13 16  1  0
 16 17  1  0
 14 18  1  0
 18 19  1  0
 19 20  1  0
 20 21  2  0
 21 22  1  0
 22 23  2  0
 23 24  1  0
 24 25  2  0
 25 20  1  0
 22 26  1  0
 26 27  1  0
 23 28  1  0
 28 29  1  0
 29 30  1  0
 30 31  2  0
 30 32  1  0
 28 33  2  0
 33 32  1  0
 17 34  1  0
 17 38  1  0
 34 35  1  0
 35 36  1  0
 36 37  1  0
 37 38  1  0
 36 39  1  0
 39 40  2  0
 39 41  2  0
 39 42  1  0
M  END
>  <ID_NEW>
CPDPP3229

>  <pEC50>
6.9400104148216215

$$$$

  -MTS-   10172316532D 0   0.00000     0.00000     0

 36 39  0  0  1  0  0  0  0  0999 V2000
   -1.9760    0.1620    0.0000 C   0  0  0  0  0  0  0  0  0  0  0  0
   -1.9780   -0.5860    0.0000 C   0  0  0  0  0  0  0  0  0  0  0  0
   -1.3210   -0.9730    0.0000 C   0  0  0  0  0  0  0  0  0  0  0  0
   -1.3230    0.5460    0.0000 C   0  0  0  0  0  0  0  0  0  0  0  0
   -0.6700    0.1790    0.0000 C   0  0  0  0  0  0  0  0  0  0  0  0
   -0.6610   -0.5850    0.0000 C   0  0  0  0  0  0  0  0  0  0  0  0
    0.0440   -0.8070    0.0000 N   0  0  0  0  0  0  0  0  0  0  0  0
    0.4880   -0.2040    0.0000 C   0  0  0  0  0  0  0  0  0  0  0  0
    0.0440    0.4190    0.0000 C   0  0  0  0  0  0  0  0  0  0  0  0
   -3.9260    1.3000    0.0000 C   0  0  0  0  0  0  0  0  0  0  0  0
   -3.9280    0.5390    0.0000 C   0  0  0  0  0  0  0  0  0  0  0  0
   -3.2750    0.1600    0.0000 C   0  0  0  0  0  0  0  0  0  0  0  0
   -2.6250    0.5400    0.0000 C   0  0  0  0  0  0  0  0  0  0  0  0
   -2.6280    1.3040    0.0000 C   0  0  0  0  0  0  0  0  0  0  0  0
   -3.2770    1.6710    0.0000 C   0  0  0  0  0  0  0  0  0  0  0  0
   -4.5810    1.6740    0.0000 C   0  0  0  0  0  0  0  0  0  0  0  0
   -4.5800    2.4280    0.0000 F   0  0  0  0  0  0  0  0  0  0  0  0
   -5.2240    1.3020    0.0000 F   0  0  0  0  0  0  0  0  0  0  0  0
   -5.3120    1.8580    0.0000 F   0  0  0  0  0  0  0  0  0  0  0  0
    0.2840   -1.5290    0.0000 S   0  0  0  0  0  0  0  0  0  0  0  0
    1.0330   -1.5250    0.0000 C   0  0  0  0  0  0  0  0  0  0  0  0
   -0.4420   -1.7210    0.0000 O   0  0  0  0  0  0  0  0  0  0  0  0
    0.2830   -2.2790    0.0000 O   0  0  0  0  0  0  0  0  0  0  0  0
    1.4160   -2.1800    0.0000 C   0  0  0  0  0  0  0  0  0  0  0  0
    2.1690   -2.1690    0.0000 C   0  0  0  0  0  0  0  0  0  0  0  0
    2.5390   -1.5280    0.0000 C   0  0  0  0  0  0  0  0  0  0  0  0
    2.1580   -0.8640    0.0000 C   0  0  0  0  0  0  0  0  0  0  0  0
    1.4150   -0.8800    0.0000 C   0  0  0  0  0  0  0  0  0  0  0  0
    3.2850   -1.5190    0.0000 O   0  0  0  0  0  0  0  0  0  0  0  0
    3.6660   -2.1680    0.0000 C   0  0  0  0  0  0  0  0  0  0  0  0
    4.4290   -2.1670    0.0000 C   0  0  2  0  0  0  0  0  0  0  0  0
    4.8060   -2.8070    0.0000 O   0  0  0  0  0  0  0  0  0  0  0  0
    4.7970   -1.5100    0.0000 C   0  0  0  0  0  0  0  0  0  0  0  0
    5.5520   -1.5010    0.0000 F   0  0  0  0  0  0  0  0  0  0  0  0
    4.4200   -0.8570    0.0000 F   0  0  0  0  0  0  0  0  0  0  0  0
    5.1710   -0.8540    0.0000 F   0  0  0  0  0  0  0  0  0  0  0  0
  1  2  2  0  0  0  0
  2  3  1  0  0  0  0
  3  6  2  0  0  0  0
  5  4  2  0  0  0  0
  4  1  1  0  0  0  0
  5  6  1  0  0  0  0
  6  7  1  0  0  0  0
  7  8  1  0  0  0  0
  8  9  1  0  0  0  0
  9  5  1  0  0  0  0
 10 11  2  0  0  0  0
 11 12  1  0  0  0  0
 12 13  2  0  0  0  0
 13 14  1  0  0  0  0
 14 15  2  0  0  0  0
 15 10  1  0  0  0  0
 10 16  1  0  0  0  0
 16 17  1  0  0  0  0
 16 18  1  0  0  0  0
 16 19  1  0  0  0  0
 13  1  1  0  0  0  0
  7 20  1  0  0  0  0
 20 21  1  0  0  0  0
 20 22  2  0  0  0  0
 20 23  2  0  0  0  0
 21 24  2  0  0  0  0
 24 25  1  0  0  0  0
 25 26  2  0  0  0  0
 26 27  1  0  0  0  0
 27 28  2  0  0  0  0
 28 21  1  0  0  0  0
 26 29  1  0  0  0  0
 29 30  1  0  0  0  0
 30 31  1  0  0  0  0
 31 32  1  0  0  0  0
 31 33  1  1  0  0  0
 33 34  1  0  0  0  0
 33 35  1  0  0  0  0
 33 36  1  0  0  0  0
M  END
>  <ID_NEW>
CPDPP3230

>  <pEC50>
6.9363164055176

$$$$

  SciTegic12180813082D

 29 31  0  0  0  0            999 V2000
   -2.3221    2.8601    0.0000 C   0  0
   -1.7518    3.2249    0.0000 S   0  0
   -1.3856    2.6554    0.0000 O   0  0
   -2.1181    3.7981    0.0000 O   0  0
   -1.1798    3.5943    0.0000 N   0  0
   -4.6664    2.1654    0.0000 C   0  0
   -4.0780    1.8289    0.0000 C   0  0
   -3.4916    2.1716    0.0000 C   0  0
   -2.9025    1.8339    0.0000 C   0  0
   -2.3165    2.1801    0.0000 C   0  0
   -2.9155    3.1922    0.0000 C   0  0
   -3.4985    2.8478    0.0000 C   0  0
   -0.5744    3.2853    0.0000 C   0  0
   -0.4737    2.6122    0.0000 S   0  0
    0.1992    2.5070    0.0000 C   0  0
    0.5082    3.1123    0.0000 N   0  0
    0.0256    3.5924    0.0000 N   0  0
    0.5060    1.9005    0.0000 C   0  0
    0.1348    1.3301    0.0000 F   0  0
    1.1840    1.8644    0.0000 F   0  0
   -5.8269    0.1218    0.0000 C   0  0
   -5.2397   -0.2190    0.0000 C   0  0
   -5.2468    1.1394    0.0000 C   0  0
   -5.8313    0.7976    0.0000 N   0  0
   -4.6549    0.8048    0.0000 C   0  0
   -4.6543    0.1205    0.0000 C   0  0
   -5.2529    1.8185    0.0000 N   0  0
   -5.2399   -0.8981    0.0000 Cl  0  0
   -4.0678    1.1477    0.0000 Cl  0  0
  9 10  1  0
 10  1  2  0
  1 11  1  0
 11 12  2  0
 12  8  1  0
  5 13  1  0
 13 14  1  0
 14 15  1  0
 15 16  2  0
 16 17  1  0
 17 13  2  0
 15 18  1  0
 18 19  1  0
 18 20  1  0
  1  2  1  0
  2  3  2  0
  2  4  2  0
  2  5  1  0
 21 22  2  0
 22 26  1  0
 25 23  1  0
 23 24  2  0
 24 21  1  0
 25 26  2  0
 23 27  1  0
 27  6  1  0
  6  7  1  0
  7  8  1  0
  8  9  2  0
 22 28  1  0
 25 29  1  0
M  END
>  <ID_NEW>
CPDPP3231

>  <pEC50>
6.9333785971436175

$$$$

  SciTegic12180813062D

 44 47  0  0  0  0            999 V2000
   12.1430   -3.1126    0.0000 C   0  0
   12.1442   -3.9400    0.0000 C   0  0
   11.4294   -4.3528    0.0000 C   0  0
   10.7129   -3.9395    0.0000 C   0  0
   10.7158   -3.1090    0.0000 C   0  0
   11.4312   -2.6998    0.0000 C   0  0
   10.0029   -2.6938    0.0000 C   0  0
   10.0060   -1.8688    0.0000 O   0  0
   12.8590   -4.3519    0.0000 C   0  0
   13.5731   -3.9388    0.0000 F   0  0
   12.8596   -5.1769    0.0000 F   0  0
   13.0719   -3.5549    0.0000 F   0  0
    9.9978   -4.3509    0.0000 O   0  0
    9.9965   -5.1759    0.0000 C   0  0
    9.2814   -5.5872    0.0000 C   0  0
    1.7966   -7.2553    0.0000 N   0  0
    2.6216   -7.2553    0.0000 N   0  0
    2.8814   -6.4711    0.0000 C   0  0
    2.2091   -5.9844    0.0000 S   0  0
    1.5491   -6.4711    0.0000 C   0  0
    3.6715   -6.2173    0.0000 N   0  0
    0.7647   -6.2157    0.0000 C   0  0
    0.5937   -5.4086    0.0000 C   0  0
    0.1512   -6.7673    0.0000 C   0  0
    4.7068   -5.2119    0.0000 S   0  0
    5.9913   -5.8426    0.0000 O   0  0
    4.4728   -3.7949    0.0000 O   0  0
    5.8433   -4.3524    0.0000 C   0  0
    7.9847   -3.1062    0.0000 C   0  0
    7.6251   -2.3637    0.0000 C   0  0
    5.8445   -3.5250    0.0000 C   0  0
    6.5582   -4.7653    0.0000 C   0  0
    7.2746   -4.3519    0.0000 C   0  0
    7.2717   -3.5214    0.0000 C   0  0
    6.5564   -3.1123    0.0000 C   0  0
    8.7007   -3.5160    0.0000 C   0  0
    8.0883   -1.6851    0.0000 C   0  0
    7.7787   -0.9748    0.0000 C   0  0
    8.8469   -1.7721    0.0000 C   0  0
    8.2425   -0.3542    0.0000 C   0  0
    9.3096   -1.1591    0.0000 C   0  0
    9.0079   -0.4429    0.0000 C   0  0
    9.4709    0.1691    0.0000 F   0  0
    9.4136   -3.1008    0.0000 N   0  0
 13 14  1  0
  9 12  1  0
 14 15  1  0
  5  7  1  0
  4  5  1  0
  2  3  1  0
  7  8  2  0
  5  6  2  0
  6  1  1  0
  1  2  2  0
  2  9  1  0
  9 10  1  0
  9 11  1  0
  4 13  1  0
 16 17  1  0
 17 18  2  0
 18 19  1  0
 19 20  1  0
 20 16  2  0
 18 21  1  0
 20 22  1  0
 22 23  1  0
 22 24  1  0
 25 26  2  0
 25 21  1  0
 25 27  2  0
 25 28  1  0
 29 30  1  0
 31 28  2  0
 28 32  1  0
 32 33  2  0
 33 34  1  0
 34 35  2  0
 35 31  1  0
 34 29  1  0
 29 36  1  0
 30 37  1  0
 37 38  2  0
 37 39  1  0
 38 40  1  0
 39 41  2  0
 40 42  2  0
 42 43  1  0
 41 42  1  0
  3  4  2  0
 36 44  1  0
  7 44  1  0
M  END
>  <ID_NEW>
CPDPP3232

>  <pEC50>
6.933206501662979

$$$$

  SciTegic12180812562D

 29 32  0  0  0  0            999 V2000
    6.7452   -1.5812    0.0000 C   0  0
    6.7481   -2.4519    0.0000 C   0  0
    7.5006   -2.8792    0.0000 C   0  0
    8.2502   -2.4440    0.0000 C   0  0
    8.2474   -1.5774    0.0000 C   0  0
    7.4949   -1.1459    0.0000 C   0  0
    5.9983   -2.8913    0.0000 O   0  0
    9.0069   -2.8755    0.0000 Cl  0  0
    8.9972   -1.1380    0.0000 C   0  0
    2.0029   -5.6288    0.0000 C   0  0
    2.5152   -6.3257    0.0000 C   0  0
    3.3771   -6.2328    0.0000 C   0  0
    3.7266   -5.4388    0.0000 C   0  0
    3.2143   -4.7377    0.0000 C   0  0
    2.3524   -4.8349    0.0000 C   0  0
    2.1656   -7.1239    0.0000 O   0  0
    2.6780   -7.8250    0.0000 C   0  0
    3.5639   -3.9438    0.0000 C   0  0
    4.4087   -3.7584    0.0000 N   0  0
    4.4961   -2.8951    0.0000 C   0  0
    3.7021   -2.5456    0.0000 C   0  0
    3.1244   -3.1941    0.0000 O   0  0
    3.5167   -1.6964    0.0000 C   0  0
    5.2458   -2.4599    0.0000 C   0  0
    9.7902   -1.4895    0.0000 N   0  0
   10.3675   -0.8399    0.0000 O   0  0
    9.9280   -0.0901    0.0000 C   0  0
    9.0792   -0.2765    0.0000 N   0  0
   10.1458    0.7542    0.0000 O   0  0
  5  9  1  0
  4  5  1  0
  2  3  1  0
  5  6  2  0
  6  1  1  0
 16 17  1  0
 14 18  1  0
 18 19  2  0
 13 14  1  0
 11 12  1  0
 14 15  2  0
 15 10  1  0
 19 20  1  0
 20 21  2  0
 21 22  1  0
 22 18  1  0
 10 11  2  0
 21 23  1  0
 11 16  1  0
 20 24  1  0
 12 13  2  0
  7 24  1  0
  9 25  2  0
  1  2  2  0
  2  7  1  0
  3  4  2  0
 25 26  1  0
 26 27  1  0
 27 28  1  0
 28  9  1  0
  4  8  1  0
 27 29  2  0
M  END
>  <ID_NEW>
CPDPP3233

>  <pEC50>
6.915265531163911

$$$$

  SciTegic12180813062D

 41 44  0  0  0  0            999 V2000
   -2.1791    2.0860    0.0000 C   0  0
   -2.9066    1.6743    0.0000 C   0  0
   -2.1657    2.9319    0.0000 O   0  0
   -3.6290    2.0945    0.0000 C   0  0
   -4.3560    1.6710    0.0000 C   0  0
   -4.3617    0.8368    0.0000 C   0  0
   -3.6302    0.4152    0.0000 C   0  0
   -2.9102    0.8370    0.0000 C   0  0
   -2.1774    0.4024    0.0000 O   0  0
   -2.1865   -0.4434    0.0000 C   0  0
   -1.4619   -0.8612    0.0000 C   0  0
   -5.0969    0.4116    0.0000 C   0  0
   -5.8319   -0.0100    0.0000 F   0  0
   -5.5170    1.1467    0.0000 F   0  0
   -4.6735   -0.3233    0.0000 F   0  0
    4.5136    0.1573    0.0000 C   0  0
    5.1964    0.0236    0.0000 S   0  0
    4.1805   -0.4420    0.0000 N   0  0
    4.6498   -0.9491    0.0000 N   0  0
    5.2759   -0.6588    0.0000 C   0  0
    5.8900   -0.9990    0.0000 C   0  0
    6.4877   -0.6411    0.0000 C   0  0
    5.9092   -1.6915    0.0000 C   0  0
    4.1712    0.7520    0.0000 N   0  0
    2.5752    1.2256    0.0000 C   0  0
    3.4223    0.9370    0.0000 S   0  0
    3.7230    1.8630    0.0000 O   0  0
    3.1349    0.0865    0.0000 O   0  0
    1.9030    0.6344    0.0000 C   0  0
    2.4058    2.1058    0.0000 C   0  0
    1.5519    2.3959    0.0000 C   0  0
    0.8724    1.8045    0.0000 C   0  0
    1.0465    0.9248    0.0000 C   0  0
    0.0249    2.1012    0.0000 C   0  0
    0.6549    2.7397    0.0000 C   0  0
    0.4270    3.5897    0.0000 C   0  0
   -0.4478    3.8299    0.0000 C   0  0
   -1.0788    3.1992    0.0000 C   0  0
   -0.8380    2.3290    0.0000 C   0  0
   -0.5492    1.4145    0.0000 C   0  0
   -1.4320    1.5674    0.0000 N   0  0
 41  1  1  0
  1  2  1  0
  1  3  2  0
 40 41  1  0
 25 26  1  0
 26 27  2  0
 26 24  1  0
 26 28  2  0
 29 25  2  0
 25 30  1  0
 30 31  2  0
 31 32  1  0
 32 33  2  0
 33 29  1  0
 34 35  1  0
 34 39  1  0
 35 36  1  0
 36 37  1  0
 37 38  1  0
 17 20  1  0
 19 18  1  0
 18 16  2  0
 19 20  2  0
 20 21  1  0
 21 22  1  0
 21 23  1  0
 24 16  1  0
 16 17  1  0
 38 39  1  0
 32 34  1  0
 34 40  1  0
  2  4  2  0
  4  5  1  0
  5  6  2  0
  6  7  1  0
  7  8  2  0
  8  2  1  0
  8  9  1  0
  9 10  1  0
 10 11  1  0
  6 12  1  0
 12 13  1  0
 12 14  1  0
 12 15  1  0
M  END
>  <ID_NEW>
CPDPP3234

>  <pEC50>
6.899331059753273

$$$$

  SciTegic12180812502D

 34 37  0  0  0  0            999 V2000
    1.7569   -5.1042    0.0000 C   0  0
    1.7557   -5.9316    0.0000 C   0  0
    2.4705   -6.3445    0.0000 C   0  0
    3.1870   -5.9311    0.0000 C   0  0
    3.1841   -5.1006    0.0000 C   0  0
    2.4687   -4.6915    0.0000 C   0  0
    1.0409   -6.3435    0.0000 C   0  0
    0.3268   -5.9305    0.0000 F   0  0
    0.8280   -5.5465    0.0000 F   0  0
    3.8970   -4.6854    0.0000 C   0  0
    4.6497   -5.0198    0.0000 N   0  0
    5.1994   -4.4046    0.0000 C   0  0
    4.7842   -3.6916    0.0000 C   0  0
    3.9779   -3.8663    0.0000 S   0  0
    5.1169   -2.9367    0.0000 C   0  0
    5.9083   -4.8168    0.0000 C   0  0
    1.0375   -6.9168    0.0000 F   0  0
    5.9370   -2.8473    0.0000 N   0  0
    6.4864   -3.4573    0.0000 C   0  0
    7.2388   -3.1189    0.0000 C   0  0
    6.3418   -2.1304    0.0000 C   0  0
    7.1486   -2.3006    0.0000 C   0  0
    7.6973   -1.6878    0.0000 C   0  0
    7.4406   -0.9046    0.0000 C   0  0
    6.6300   -0.7376    0.0000 C   0  0
    6.0848   -1.3517    0.0000 C   0  0
    5.9058   -5.6418    0.0000 C   0  0
    6.6190   -6.0565    0.0000 C   0  0
    6.6164   -6.8815    0.0000 C   0  0
    7.9899   -0.2891    0.0000 O   0  0
    8.7976   -0.4570    0.0000 C   0  0
    9.3470    0.1585    0.0000 C   0  0
   10.1547   -0.0095    0.0000 O   0  0
    9.0886    0.9420    0.0000 O   0  0
 22 23  1  0
  5  6  2  0
 23 24  2  0
  6  1  1  0
 24 25  1  0
  1  2  2  0
 25 26  2  0
 26 21  1  0
  2  7  1  0
 12 16  1  0
 11 12  1  0
 12 13  2  0
 13 14  1  0
 14 10  1  0
  3  4  2  0
 16 27  1  0
 13 15  1  0
 27 28  1  0
  7  8  1  0
 28 29  1  0
  7 17  1  0
 15 18  1  0
 18 19  1  0
  4  5  1  0
  7  9  1  0
 19 20  2  0
 20 22  1  0
 21 18  1  0
 24 30  1  0
  2  3  1  0
 30 31  1  0
  5 10  1  0
 31 32  1  0
 21 22  2  0
 32 33  2  0
 10 11  2  0
 32 34  1  0
M  END
>  <ID_NEW>
CPDPP3235

>  <pEC50>
6.898478603819881

$$$$

  SciTegic12180813022D

 39 43  0  0  0  0            999 V2000
   -0.8098    2.4542    0.0000 C   0  0
   -0.8109    1.9477    0.0000 C   0  0
   -0.3669    1.6931    0.0000 C   0  0
    0.0745    1.9481    0.0000 C   0  0
    0.0716    2.4578    0.0000 C   0  0
   -0.3688    2.7086    0.0000 C   0  0
    0.5116    2.7152    0.0000 C   0  0
    0.9545    2.4629    0.0000 N   0  0
    0.5168    1.6945    0.0000 O   0  0
    0.5167    1.1875    0.0000 C   0  0
   -3.1204    1.1277    0.0000 C   0  0
   -3.6714    1.0563    0.0000 C   0  0
   -2.8278    1.6087    0.0000 S   0  0
   -2.7624    0.7133    0.0000 N   0  0
   -3.8784    0.5518    0.0000 C   0  0
   -3.9931    1.5012    0.0000 C   0  0
   -2.2857    1.4827    0.0000 C   0  0
   -2.2527    0.9099    0.0000 C   0  0
   -4.4225    0.4855    0.0000 C   0  0
   -4.5494    1.4228    0.0000 C   0  0
   -1.8705    1.8403    0.0000 C   0  0
   -1.7884    0.6034    0.0000 C   0  0
   -4.7559    0.9245    0.0000 C   0  0
   -1.3532    1.6596    0.0000 O   0  0
   -5.2923    0.8605    0.0000 C   0  0
   -5.8333    0.8156    0.0000 F   0  0
   -5.2419    0.3140    0.0000 F   0  0
   -5.3420    1.3963    0.0000 F   0  0
   -1.8240    0.0476    0.0000 N   0  0
   -2.3258   -0.1985    0.0000 C   0  0
   -2.3625   -0.7518    0.0000 C   0  0
   -1.9003   -1.0630    0.0000 C   0  0
   -1.4000   -0.8168    0.0000 C   0  0
   -1.3619   -0.2594    0.0000 C   0  0
   -1.9379   -1.6189    0.0000 F   0  0
    0.5086    3.2249    0.0000 N   0  0
    1.3444    2.9161    0.0000 O   0  0
    1.0000    3.3583    0.0000 C   0  0
    1.1263    3.8302    0.0000 O   0  0
  4  5  1  0
  5  6  2  0
  6  1  1  0
  5  7  1  0
  7  8  2  0
 11 12  1  0
 11 13  1  0
 11 14  2  0
 12 15  1  0
 12 16  2  0
 13 17  1  0
 14 18  1  0
 15 19  2  0
 16 20  1  0
 17 21  1  0
 18 22  1  0
 19 23  1  0
 21 24  1  0
 23 25  1  0
 25 26  1  0
 25 27  1  0
 25 28  1  0
 17 18  2  0
 20 23  2  0
 22 29  1  0
 29 30  1  0
  4  9  1  0
  9 10  1  0
 29 34  1  0
 30 31  1  0
 31 32  1  0
 32 33  1  0
 33 34  1  0
 32 35  1  0
  2 24  1  0
  7 36  1  0
  1  2  2  0
  8 37  1  0
 36 38  1  0
 38 37  1  0
  2  3  1  0
 38 39  2  0
  3  4  2  0
M  END
>  <ID_NEW>
CPDPP3236

>  <pEC50>
6.8873285617447575

$$$$

  SciTegic12180812332D

 37 40  0  0  0  0            999 V2000
    4.4346   -6.9399    0.0000 C   0  0
    3.7324   -6.5022    0.0000 C   0  0
    3.7614   -5.6772    0.0000 C   0  0
    4.4916   -5.2889    0.0000 C   0  0
    5.1943   -5.7316    0.0000 C   0  0
    5.1620   -6.5551    0.0000 C   0  0
    3.0042   -6.8899    0.0000 C   0  0
    2.9759   -7.7145    0.0000 F   0  0
    2.3043   -6.4531    0.0000 F   0  0
    2.2777   -7.2849    0.0000 F   0  0
    5.9253   -5.3493    0.0000 C   0  0
    6.0399   -4.5318    0.0000 S   0  0
    6.8528   -4.3917    0.0000 C   0  0
    7.2373   -5.1218    0.0000 C   0  0
    6.6617   -5.7128    0.0000 N   0  0
    8.0538   -5.2400    0.0000 C   0  0
    8.5644   -4.5920    0.0000 C   0  0
    9.3808   -4.7102    0.0000 C   0  0
    9.8914   -4.0621    0.0000 C   0  0
    7.2175   -3.6517    0.0000 C   0  0
    4.7445   -1.7832    0.0000 C   0  0
    4.7433   -2.6106    0.0000 C   0  0
    5.4581   -3.0235    0.0000 N   0  0
    5.4563   -1.3705    0.0000 C   0  0
    6.1717   -1.7796    0.0000 C   0  0
    6.1720   -2.6106    0.0000 C   0  0
    6.9624   -2.8672    0.0000 N   0  0
    7.4508   -2.1947    0.0000 C   0  0
    6.9620   -1.5226    0.0000 C   0  0
    4.0251   -1.3666    0.0000 O   0  0
    4.7333   -0.1209    0.0000 C   0  0
    5.4501   -0.5294    0.0000 C   0  0
    3.3083   -1.7709    0.0000 C   0  0
    2.5980   -1.3512    0.0000 C   0  0
    1.8794   -1.7564    0.0000 O   0  0
    2.6064   -0.5262    0.0000 O   0  0
    4.7287    0.7041    0.0000 C   0  0
 29 25  1  0
 21 30  1  0
 24 21  1  0
 25 26  1  0
 22 23  1  0
 27 20  1  0
  1  2  2  0
 13 14  2  0
 14 15  1  0
 15 11  2  0
 14 16  1  0
 16 17  1  0
 17 18  1  0
 18 19  1  0
 13 20  1  0
 11 12  1  0
 12 13  1  0
 31 32  1  0
 32 24  1  0
  2  7  1  0
  5 11  1  0
  3  4  2  0
  7  8  1  0
  7  9  1  0
  4  5  1  0
  7 10  1  0
  2  3  1  0
  5  6  2  0
 30 33  1  0
  6  1  1  0
 33 34  1  0
 23 26  2  0
 34 35  1  0
 21 22  2  0
 34 36  2  0
 25 24  2  0
 26 27  1  0
 27 28  1  0
 28 29  2  0
 31 37  1  0
M  END
>  <ID_NEW>
CPDPP3237

>  <pEC50>
6.874375377023543

$$$$

  SciTegic12180813062D

 37 40  0  0  0  0            999 V2000
   -5.1010    0.3586    0.0000 C   0  0
   -4.6882   -0.3604    0.0000 C   0  0
   -3.8594    1.0743    0.0000 C   0  0
   -4.6880    1.0725    0.0000 N   0  0
   -3.4486    0.3549    0.0000 C   0  0
   -3.8619   -0.3597    0.0000 C   0  0
   -5.1047   -1.0865    0.0000 C   0  0
   -5.5246   -1.8088    0.0000 F   0  0
   -5.8327   -0.6680    0.0000 F   0  0
   -4.3815   -1.5013    0.0000 F   0  0
   -2.6234    0.3546    0.0000 Cl  0  0
    1.8049    1.2674    0.0000 C   0  0
    2.5247    1.6821    0.0000 N   0  0
    3.1416    1.1249    0.0000 N   0  0
    2.7994    0.3789    0.0000 C   0  0
    1.9825    0.4612    0.0000 S   0  0
    3.2093   -0.3527    0.0000 C   0  0
    3.6167   -1.0773    0.0000 F   0  0
    3.9366    0.0574    0.0000 F   0  0
    2.4871   -0.7590    0.0000 F   0  0
    0.2711    2.5010    0.0000 C   0  0
    1.0983    2.5030    0.0000 S   0  0
    1.0950    1.6799    0.0000 N   0  0
    1.0837    3.6320    0.0000 O   0  0
    2.1127    2.5365    0.0000 O   0  0
   -0.9673    1.7852    0.0000 C   0  0
   -0.1400    1.7840    0.0000 C   0  0
   -0.1398    3.2152    0.0000 C   0  0
   -0.9702    3.2164    0.0000 C   0  0
   -1.3817    2.5032    0.0000 C   0  0
   -2.6237    1.7908    0.0000 C   0  0
   -3.4486    1.7837    0.0000 N   0  0
   -1.7995    3.2133    0.0000 C   0  0
   -2.2100    2.5042    0.0000 C   0  0
   -3.0181    2.6753    0.0000 C   0  0
   -3.1003    3.4936    0.0000 C   0  0
   -2.3570    3.8332    0.0000 C   0  0
  3  4  2  0
  4  1  1  0
  5  6  2  0
  3 32  1  0
 12 13  2  0
 13 14  1  0
 14 15  2  0
 17 18  1  0
 17 19  1  0
 17 20  1  0
 26 27  2  0
 27 21  1  0
 21 28  2  0
 28 29  1  0
 30 34  1  0
 34 31  1  0
 31 32  1  0
 33 34  1  0
 34 35  1  0
 35 36  1  0
 36 37  1  0
 37 33  1  0
 21 22  1  0
 22 23  1  0
 22 24  2  0
 22 25  2  0
 29 30  2  0
 30 26  1  0
 15 16  1  0
 16 12  1  0
 15 17  1  0
 23 12  1  0
  2  7  1  0
  7  8  1  0
  7  9  1  0
  7 10  1  0
  5 11  1  0
  1  2  2  0
  2  6  1  0
  5  3  1  0
M  END
>  <ID_NEW>
CPDPP3238

>  <pEC50>
6.868784891550019

$$$$

  SciTegic12180813522D

 34 38  0  0  0  0            999 V2000
   11.0299   -4.8578    0.0000 C   0  0
   10.7680   -5.6352    0.0000 N   0  0
   11.4294   -6.1244    0.0000 C   0  0
   12.1079   -5.6423    0.0000 O   0  0
   11.8541   -4.8587    0.0000 N   0  0
   11.4290   -6.9490    0.0000 O   0  0
   10.7814   -4.0709    0.0000 C   0  0
   11.3357   -3.4644    0.0000 C   0  0
   11.0832   -2.6765    0.0000 C   0  0
   10.2807   -2.5005    0.0000 C   0  0
    9.7260   -3.1114    0.0000 C   0  0
    9.9779   -3.8943    0.0000 C   0  0
   10.0272   -1.7148    0.0000 S   0  0
    9.2409   -1.9673    0.0000 O   0  0
   10.8164   -1.4599    0.0000 O   0  0
    9.7711   -0.9267    0.0000 N   0  0
    7.1271    1.3408    0.0000 C   0  0
    6.5999    1.9669    0.0000 C   0  0
    5.7709    1.8254    0.0000 C   0  0
    5.4929    1.0500    0.0000 C   0  0
    6.0253    0.4203    0.0000 C   0  0
    6.8437    0.5648    0.0000 C   0  0
    5.2322    2.4534    0.0000 C   0  0
    4.6887    3.0768    0.0000 F   0  0
    4.6077    1.9120    0.0000 F   0  0
    5.8558    2.9947    0.0000 F   0  0
    7.5610    0.1500    0.0000 C   0  0
    7.5598   -0.6732    0.0000 C   0  0
    8.2788   -1.0860    0.0000 N   0  0
    8.2770    0.5628    0.0000 C   0  0
    8.9882    0.1536    0.0000 C   0  0
    8.9888   -0.6728    0.0000 C   0  0
   10.2542   -0.2646    0.0000 C   0  0
    9.7727    0.4053    0.0000 C   0  0
  5  1  2  0
  3  6  2  0
  1  2  1  0
  2  3  1  0
  3  4  1  0
  4  5  1  0
  7  1  1  0
 10 13  1  0
 11 12  1  0
 13 14  2  0
  9 10  1  0
 13 15  2  0
 12  7  2  0
 13 16  1  0
  7  8  1  0
  8  9  2  0
 10 11  2  0
 23 24  1  0
 22 17  1  0
 23 25  1  0
 17 18  2  0
 27 22  1  0
 23 26  1  0
 19 20  2  0
 19 23  1  0
 20 21  1  0
 18 19  1  0
 21 22  2  0
 28 29  1  0
 29 32  2  0
 27 28  2  0
 31 30  2  0
 32 16  1  0
 16 33  1  0
 33 34  1  0
 34 31  1  0
 30 27  1  0
 31 32  1  0
M  END
>  <ID_NEW>
CPDPP3239

>  <pEC50>
6.832279667752529

$$$$

  SciTegic12180812592D

 40 44  0  0  0  0            999 V2000
   -5.0055    3.8312    0.0000 C   0  0
   -5.2837    3.4619    0.0000 C   0  0
   -5.1049    3.0365    0.0000 C   0  0
   -4.6467    2.9800    0.0000 C   0  0
   -4.3698    3.3501    0.0000 C   0  0
   -4.5512    3.7729    0.0000 C   0  0
   -3.9132    3.2931    0.0000 C   0  0
   -3.7308    2.8719    0.0000 N   0  0
   -5.7406    3.5160    0.0000 F   0  0
   -5.0514    1.3250    0.0000 C   0  0
   -5.0526    0.8768    0.0000 C   0  0
   -4.6586    0.6556    0.0000 C   0  0
   -4.2713    0.8773    0.0000 C   0  0
   -4.2742    1.3287    0.0000 C   0  0
   -4.6604    1.5545    0.0000 C   0  0
   -5.4424    0.6566    0.0000 C   0  0
   -5.8315    0.8780    0.0000 F   0  0
   -5.4430    0.2024    0.0000 F   0  0
   -5.5594    1.0870    0.0000 F   0  0
   -3.9106    1.5966    0.0000 C   0  0
   -3.4793    1.4602    0.0000 S   0  0
   -3.2190    1.8232    0.0000 C   0  0
   -3.4827    2.1868    0.0000 C   0  0
   -3.9092    2.0490    0.0000 N   0  0
   -3.3398    2.6129    0.0000 C   0  0
   -2.7649    1.8228    0.0000 C   0  0
   -2.5278    2.0664    0.0000 O   0  0
   -2.1720    2.0631    0.0000 C   0  0
   -1.9990    1.7601    0.0000 C   0  0
   -1.6438    1.7566    0.0000 C   0  0
   -1.4666    2.0619    0.0000 C   0  0
   -1.6451    2.3678    0.0000 C   0  0
   -1.9951    2.3686    0.0000 C   0  0
   -1.4735    1.4529    0.0000 F   0  0
   -1.1101    2.0595    0.0000 C   0  0
   -0.9094    1.7683    0.0000 N   0  0
   -0.5748    1.8789    0.0000 O   0  0
   -0.5734    2.2363    0.0000 C   0  0
   -0.9072    2.3455    0.0000 N   0  0
   -0.2853    2.4421    0.0000 O   0  0
  1  2  2  0
  2  3  1  0
  3  4  2  0
  4  5  1  0
  5  6  2  0
  6  1  1  0
  5  7  1  0
  7  8  1  0
  2  9  1  0
 10 11  2  0
 11 12  1  0
 12 13  2  0
 13 14  1  0
 14 15  2  0
 15 10  1  0
 11 16  1  0
 16 17  1  0
 16 18  1  0
 16 19  1  0
 14 20  1  0
 23 24  1  0
 21 22  1  0
 20 21  1  0
 22 23  2  0
 24 20  2  0
 23 25  1  0
 22 26  1  0
 26 27  1  0
 27 28  1  0
 28 29  2  0
 29 30  1  0
 30 31  2  0
 31 32  1  0
 32 33  2  0
 33 28  1  0
 30 34  1  0
 31 35  1  0
 36 37  1  0
 35 36  2  0
 37 38  1  0
 38 39  1  0
 39 35  1  0
 38 40  2  0
 25  8  1  0
M  END
>  <ID_NEW>
CPDPP3240

>  <pEC50>
6.826681716743934

$$$$

  SciTegic12180813552D

 41 46  0  0  0  0            999 V2000
    8.2333   -8.4947    0.0000 C   0  0
    7.6296   -9.0570    0.0000 N   0  0
    7.9826   -9.7946    0.0000 C   0  0
    8.7929   -9.7037    0.0000 O   0  0
    8.9485   -8.8892    0.0000 N   0  0
    7.5795  -10.5225    0.0000 O   0  0
    7.0573   -6.6586    0.0000 C   0  0
    7.2478   -7.4568    0.0000 C   0  0
    8.0376   -7.6947    0.0000 C   0  0
    8.6416   -7.1272    0.0000 C   0  0
    8.4429   -6.3258    0.0000 C   0  0
    7.6525   -6.0917    0.0000 C   0  0
    7.4542   -5.2875    0.0000 S   0  0
    8.2587   -5.0920    0.0000 O   0  0
    6.6504   -5.4836    0.0000 O   0  0
    6.6456   -8.0188    0.0000 Cl  0  0
    5.1110   -3.2874    0.0000 C   0  0
    2.9852   -2.7421    0.0000 C   0  0
    3.6766   -3.2006    0.0000 C   0  0
    4.4204   -2.8303    0.0000 C   0  0
    4.4697   -2.0055    0.0000 C   0  0
    3.7820   -1.5534    0.0000 C   0  0
    3.0372   -1.9175    0.0000 C   0  0
    2.3338   -1.4591    0.0000 C   0  0
    1.6348   -1.0034    0.0000 F   0  0
    1.8754   -2.1605    0.0000 F   0  0
    2.7939   -0.7603    0.0000 F   0  0
    7.3375   -3.1458    0.0000 C   0  0
    8.1583   -3.1459    0.0000 C   0  0
    8.5716   -2.4360    0.0000 C   0  0
    8.1589   -1.7207    0.0000 N   0  0
    7.3339   -1.7206    0.0000 C   0  0
    6.9216   -2.4361    0.0000 C   0  0
    5.0641   -4.1023    0.0000 C   0  0
    5.7622   -4.5569    0.0000 C   0  0
    5.8479   -2.9122    0.0000 C   0  0
    6.5383   -3.3588    0.0000 C   0  0
    6.4931   -4.1811    0.0000 C   0  0
    7.2556   -4.4819    0.0000 N   0  0
    7.7792   -3.8438    0.0000 C   0  0
    8.5792   -0.9958    0.0000 C   0  0
  7  8  2  0
  9  1  1  0
  9 10  2  0
 12 13  1  0
 13 14  2  0
 10 11  1  0
 13 15  2  0
  8  9  1  0
 11 12  2  0
  8 16  1  0
  4  5  1  0
  5  1  2  0
  3  6  2  0
  1  2  1  0
  2  3  1  0
  3  4  1  0
 12  7  1  0
 17 20  1  0
 23 18  1  0
 24 27  1  0
 18 19  2  0
 20 21  2  0
 21 22  1  0
 23 24  1  0
 19 20  1  0
 24 25  1  0
 22 23  2  0
 24 26  1  0
 31 32  1  0
 32 33  1  0
 38 39  1  0
 39 40  1  0
 40 28  1  0
 28 37  1  0
 28 29  1  0
 17 34  2  0
 28 33  1  0
 34 35  1  0
 35 38  2  0
 29 30  1  0
 37 36  2  0
 36 17  1  0
 37 38  1  0
 30 31  1  0
 31 41  1  0
 39 13  1  0
M  END
>  <ID_NEW>
CPDPP3241

>  <pEC50>
6.826168040215224

$$$$

  SciTegic12180814022D

 36 39  0  0  0  0            999 V2000
   -1.8598    1.1125    0.0000 C   0  0
   -1.8609    0.2143    0.0000 C   0  0
   -1.0836   -0.2360    0.0000 C   0  0
   -1.0854    1.5586    0.0000 C   0  0
   -0.3117    1.1162    0.0000 C   0  0
   -0.3067    0.2193    0.0000 C   0  0
    0.5479   -0.0532    0.0000 N   0  0
    1.0711    0.6754    0.0000 C   0  0
    0.5398    1.3980    0.0000 C   0  0
   -4.1889    2.4542    0.0000 C   0  0
   -4.1901    1.5560    0.0000 C   0  0
   -3.4128    1.1056    0.0000 C   0  0
   -2.6380    1.5565    0.0000 C   0  0
   -2.6409    2.4578    0.0000 C   0  0
   -3.4146    2.9003    0.0000 C   0  0
   -4.9642    2.9030    0.0000 C   0  0
   -4.9633    3.7988    0.0000 F   0  0
   -5.7406    2.4559    0.0000 F   0  0
   -5.8333    3.1375    0.0000 F   0  0
    0.8294   -0.9036    0.0000 S   0  0
    1.7250   -0.9000    0.0000 C   0  0
   -0.0375   -1.1292    0.0000 O   0  0
    0.8250   -1.7958    0.0000 O   0  0
    2.1739   -1.6763    0.0000 C   0  0
    3.0686   -1.6730    0.0000 C   0  0
    3.5142   -0.8951    0.0000 C   0  0
    3.0584   -0.1187    0.0000 C   0  0
    2.1652   -0.1258    0.0000 C   0  0
    4.4100   -0.8902    0.0000 O   0  0
    4.8621   -1.6636    0.0000 C   0  0
    5.7579   -1.6588    0.0000 C   0  0
    6.2100   -2.4322    0.0000 O   0  0
    6.2016   -0.8806    0.0000 C   0  0
    7.0974   -0.8757    0.0000 F   0  0
    5.7495   -0.1072    0.0000 F   0  0
    6.6458   -0.1000    0.0000 F   0  0
  1  2  2  0
  2  3  1  0
  3  6  2  0
  5  4  2  0
  4  1  1  0
  5  6  1  0
  6  7  1  0
  7  8  1  0
  8  9  1  0
  9  5  1  0
 10 11  2  0
 11 12  1  0
 12 13  2  0
 13 14  1  0
 14 15  2  0
 15 10  1  0
 10 16  1  0
 16 17  1  0
 16 18  1  0
 16 19  1  0
 13  1  1  0
  7 20  1  0
 20 21  1  0
 20 22  2  0
 20 23  2  0
 21 24  2  0
 24 25  1  0
 25 26  2  0
 26 27  1  0
 27 28  2  0
 28 21  1  0
 26 29  1  0
 29 30  1  0
 30 31  1  0
 31 32  1  0
 31 33  1  0
 33 34  1  0
 33 35  1  0
 33 36  1  0
M  END
>  <ID_NEW>
CPDPP3242

>  <pEC50>
6.824789178019657

$$$$

  SciTegic12180813072D

 38 40  0  0  0  0            999 V2000
    4.2532    3.0973    0.0000 C   0  0
    5.0400    3.3570    0.0000 S   0  0
    4.2637    2.2710    0.0000 N   0  0
    5.0562    2.0222    0.0000 N   0  0
    5.5255    2.6934    0.0000 C   0  0
    6.3657    2.7095    0.0000 C   0  0
    6.7641    3.4291    0.0000 C   0  0
    6.7958    2.0005    0.0000 C   0  0
    2.8243    3.0859    0.0000 S   0  0
    2.4089    3.7972    0.0000 O   0  0
    3.5385    3.5027    0.0000 N   0  0
    3.2440    2.3727    0.0000 O   0  0
    2.1164    2.6657    0.0000 C   0  0
    1.4086    1.4185    0.0000 C   0  0
    2.1244    1.8418    0.0000 C   0  0
    1.4004    3.0715    0.0000 C   0  0
    0.6835    2.6525    0.0000 C   0  0
    0.6914    1.8280    0.0000 C   0  0
   -0.0222    1.4079    0.0000 C   0  0
   -0.7321    0.9898    0.0000 C   0  0
    0.3967    0.6970    0.0000 C   0  0
   -0.4398    2.1224    0.0000 C   0  0
   -1.2698    2.1169    0.0000 N   0  0
   -1.6882    1.3968    0.0000 C   0  0
   -2.5072    1.3982    0.0000 C   0  0
   -1.2712    0.6860    0.0000 O   0  0
   -2.9221    2.1095    0.0000 C   0  0
   -3.7534    2.1028    0.0000 C   0  0
   -4.1614    1.3875    0.0000 C   0  0
   -3.7455    0.6729    0.0000 C   0  0
   -2.9232    0.6748    0.0000 C   0  0
   -2.5109   -0.0513    0.0000 O   0  0
   -2.9209   -0.7607    0.0000 C   0  0
   -2.5107   -1.4773    0.0000 C   0  0
   -4.9944    1.3838    0.0000 C   0  0
   -5.8312    1.3735    0.0000 F   0  0
   -5.0019    2.2162    0.0000 F   0  0
   -4.9881    0.5501    0.0000 F   0  0
  1  2  1  0
  2  5  1  0
  4  3  1  0
  3  1  2  0
 14 15  2  0
 15 13  1  0
 13 16  2  0
 16 17  1  0
 17 18  2  0
 18 14  1  0
 19 20  1  0
 19 21  1  0
 18 19  1  0
 22 23  1  0
 19 22  1  0
  9 13  1  0
  9 12  2  0
  9 10  2  0
  9 11  1  0
  4  5  2  0
  5  6  1  0
  6  7  1  0
  6  8  1  0
 11  1  1  0
 31 25  1  0
 31 32  1  0
 32 33  1  0
 33 34  1  0
 29 35  1  0
 35 36  1  0
 35 37  1  0
 35 38  1  0
 23 24  1  0
 24 25  1  0
 24 26  2  0
 25 27  2  0
 27 28  1  0
 28 29  2  0
 29 30  1  0
 30 31  2  0
M  END
>  <ID_NEW>
CPDPP3243

>  <pEC50>
6.808862128809809

$$$$

  SciTegic12180812592D

 37 40  0  0  0  0            999 V2000
    6.7652   -3.0125    0.0000 C   0  0
    6.7640   -3.4023    0.0000 C   0  0
    7.1039   -3.5944    0.0000 C   0  0
    7.4411   -3.4019    0.0000 C   0  0
    7.4383   -3.0088    0.0000 C   0  0
    7.1021   -2.8247    0.0000 C   0  0
    7.7657   -2.8181    0.0000 C   0  0
    8.1086   -3.0037    0.0000 N   0  0
    7.7709   -3.5930    0.0000 F   0  0
    5.2288   -3.9417    0.0000 C   0  0
    4.8466   -3.9932    0.0000 C   0  0
    5.4305   -3.6061    0.0000 S   0  0
    5.4784   -4.2286    0.0000 N   0  0
    4.7020   -4.3384    0.0000 C   0  0
    4.6196   -3.6843    0.0000 C   0  0
    5.8087   -3.6965    0.0000 C   0  0
    5.8293   -4.0954    0.0000 C   0  0
    4.3267   -4.3894    0.0000 C   0  0
    4.2332   -3.7385    0.0000 C   0  0
    6.0946   -3.4497    0.0000 C   0  0
    6.1536   -4.3107    0.0000 C   0  0
    4.0931   -4.0814    0.0000 C   0  0
    6.4500   -3.5721    0.0000 O   0  0
    3.7183   -4.1243    0.0000 C   0  0
    3.3406   -4.1629    0.0000 F   0  0
    3.7519   -4.5053    0.0000 F   0  0
    3.6851   -3.7540    0.0000 F   0  0
    7.7628   -2.4293    0.0000 N   0  0
    8.1486   -2.3677    0.0000 C   0  0
    8.3916   -2.6625    0.0000 O   0  0
    8.2848   -2.0060    0.0000 O   0  0
    6.1294   -4.6992    0.0000 N   0  0
    5.7808   -4.8725    0.0000 C   0  0
    5.7566   -5.2611    0.0000 C   0  0
    5.4080   -5.4343    0.0000 C   0  0
    5.3838   -5.8229    0.0000 S   0  0
    5.0352   -5.9962    0.0000 C   0  0
  1  2  2  0
  2  3  1  0
  3  4  2  0
  4  5  1  0
  5  6  2  0
  6  1  1  0
  5  7  1  0
  7  8  2  0
  4  9  1  0
 10 11  1  0
 10 12  1  0
 10 13  2  0
 11 14  1  0
 11 15  2  0
 12 16  1  0
 13 17  1  0
 14 18  2  0
 15 19  1  0
 16 20  1  0
 17 21  1  0
 18 22  1  0
 20 23  1  0
 22 24  1  0
 24 25  1  0
 24 26  1  0
 24 27  1  0
 16 17  2  0
 19 22  2  0
  2 23  1  0
  7 28  1  0
 28 29  1  0
  8 30  1  0
 29 30  1  0
 29 31  2  0
 21 32  1  0
 32 33  1  0
 33 34  1  0
 34 35  1  0
 35 36  1  0
 36 37  1  0
M  END
>  <ID_NEW>
CPDPP3244

>  <pEC50>
6.806715199044876

$$$$

  SciTegic12180813052D

 36 39  0  0  0  0            999 V2000
    2.9736   -4.6958    0.0000 C   0  0
    2.9724   -5.3523    0.0000 C   0  0
    3.5414   -5.6777    0.0000 C   0  0
    4.1078   -5.3519    0.0000 C   0  0
    4.1050   -4.6922    0.0000 C   0  0
    3.5396   -4.3664    0.0000 C   0  0
    2.4034   -5.6768    0.0000 C   0  0
    1.8393   -5.3512    0.0000 F   0  0
    2.4028   -6.3351    0.0000 F   0  0
    2.2364   -5.0464    0.0000 F   0  0
    4.6352   -4.3075    0.0000 C   0  0
    5.2582   -4.5064    0.0000 S   0  0
    5.6435   -3.9768    0.0000 C   0  0
    5.2589   -3.4465    0.0000 C   0  0
    4.6367   -3.6468    0.0000 N   0  0
    5.4644   -2.8246    0.0000 C   0  0
    6.3018   -3.9772    0.0000 C   0  0
    6.6514   -3.6211    0.0000 O   0  0
    7.1655   -3.6244    0.0000 C   0  0
    7.4177   -4.0690    0.0000 C   0  0
    7.9312   -4.0726    0.0000 C   0  0
    8.1917   -3.6298    0.0000 C   0  0
    7.9341   -3.1822    0.0000 C   0  0
    7.4216   -3.1814    0.0000 C   0  0
    8.1848   -4.5179    0.0000 F   0  0
    8.7066   -3.6322    0.0000 C   0  0
    9.0031   -4.0525    0.0000 N   0  0
    9.4918   -3.8919    0.0000 O   0  0
    9.4932   -3.3762    0.0000 C   0  0
    9.0053   -3.2170    0.0000 N   0  0
    9.9105   -3.0746    0.0000 O   0  0
    5.0284   -2.3357    0.0000 N   0  0
    5.2338   -1.7137    0.0000 C   0  0
    5.8752   -1.5806    0.0000 C   0  0
    6.3111   -2.0695    0.0000 O   0  0
    4.3871   -2.4688    0.0000 C   0  0
 17 18  1  0
  7  9  1  0
 18 19  1  0
  4  5  1  0
 19 20  2  0
  7 10  1  0
 20 21  1  0
  2  3  1  0
 21 22  2  0
  5 11  1  0
 22 23  1  0
 14 15  1  0
 23 24  2  0
 24 19  1  0
  5  6  2  0
 21 25  1  0
 12 13  1  0
 22 26  1  0
 27 28  1  0
  6  1  1  0
  1  2  2  0
  2  7  1  0
 11 12  1  0
 26 27  2  0
 28 29  1  0
 29 30  1  0
 30 26  1  0
 13 14  2  0
 29 31  2  0
 15 11  2  0
 16 32  1  0
  3  4  2  0
 32 33  1  0
 14 16  1  0
 33 34  1  0
  7  8  1  0
 34 35  1  0
 13 17  1  0
 32 36  1  0
M  END
>  <ID_NEW>
CPDPP3245

>  <pEC50>
6.803917635033347

$$$$

  SciTegic12180813022D

 29 32  0  0  0  0            999 V2000
   -2.9784    1.6619    0.0000 C   0  0
   -2.2655    2.0771    0.0000 C   0  0
   -1.5109    1.7470    0.0000 S   0  0
   -0.9612    2.3622    0.0000 C   0  0
   -1.3765    3.0751    0.0000 C   0  0
   -2.1827    2.9004    0.0000 N   0  0
   -1.0438    3.8301    0.0000 C   0  0
   -0.1404    2.2790    0.0000 C   0  0
    0.1979    1.5266    0.0000 O   0  0
    1.0187    1.4434    0.0000 C   0  0
    1.3520    0.6902    0.0000 C   0  0
    2.1720    0.6067    0.0000 C   0  0
    2.6554    1.2764    0.0000 C   0  0
    2.3129    2.0316    0.0000 C   0  0
    1.4939    2.1115    0.0000 C   0  0
    2.7930    2.7025    0.0000 Cl  0  0
    3.4763    1.1942    0.0000 C   0  0
   -3.6930    2.0750    0.0000 C   0  0
   -4.4054    1.6605    0.0000 C   0  0
   -4.4028    0.8346    0.0000 C   0  0
   -3.6817    0.4250    0.0000 C   0  0
   -2.9723    0.8419    0.0000 C   0  0
   -5.1151    0.4185    0.0000 O   0  0
   -5.8317    0.8273    0.0000 C   0  0
    3.8931    0.4839    0.0000 N   0  0
    4.6992    0.6594    0.0000 O   0  0
    4.7814    1.4804    0.0000 C   0  0
    4.0261    1.8121    0.0000 N   0  0
    5.4938    1.8965    0.0000 O   0  0
  1  2  1  0
  3  4  1  0
  4  5  2  0
  5  6  1  0
  6  2  2  0
  5  7  1  0
  4  8  1  0
  2  3  1  0
  8  9  1  0
  9 10  1  0
 10 11  2  0
 11 12  1  0
 12 13  2  0
 13 14  1  0
 14 15  2  0
 15 10  1  0
 14 16  1  0
 13 17  1  0
  1 18  2  0
 18 19  1  0
 19 20  2  0
 20 21  1  0
 21 22  2  0
 22  1  1  0
 20 23  1  0
 23 24  1  0
 17 25  2  0
 25 26  1  0
 26 27  1  0
 27 28  1  0
 28 17  1  0
 27 29  2  0
M  END
>  <ID_NEW>
CPDPP3246

>  <pEC50>
6.799694833659191

$$$$

  SciTegic12180813012D

 35 39  0  0  0  0            999 V2000
    4.6578   -0.0855    0.0000 C   0  0
    3.9950   -1.2610    0.0000 C   0  0
    3.9966    1.0839    0.0000 C   0  0
    6.0096   -0.0865    0.0000 C   0  0
    2.6398   -1.2600    0.0000 C   0  0
    4.6562   -2.4683    0.0000 C   0  0
    2.6414    1.0849    0.0000 C   0  0
    1.9406   -0.0837    0.0000 C   0  0
    0.5721   -0.0810    0.0000 O   0  0
   -4.1941    1.1267    0.0000 C   0  0
   -4.6016    0.4066    0.0000 C   0  0
   -4.1819   -0.3041    0.0000 C   0  0
   -3.3548   -0.2961    0.0000 C   0  0
   -2.9492    0.4287    0.0000 C   0  0
   -3.3713    1.1365    0.0000 C   0  0
   -2.1243    0.4400    0.0000 C   0  0
   -1.6293   -0.2190    0.0000 O   0  0
   -0.8483    0.0467    0.0000 C   0  0
   -0.8596    0.8717    0.0000 C   0  0
   -1.6477    1.1157    0.0000 N   0  0
   -5.4266    0.3990    0.0000 O   0  0
   -0.1742   -0.4289    0.0000 C   0  0
   -0.1996    1.3680    0.0000 C   0  0
   -5.8325   -0.3192    0.0000 C   0  0
   -0.1327    2.1903    0.0000 N   0  0
    6.8066   -1.1755    0.0000 N   0  0
    8.0925   -0.7587    0.0000 O   0  0
    8.0935    0.5932    0.0000 C   0  0
    6.8082    1.0117    0.0000 N   0  0
    9.1878    1.3871    0.0000 O   0  0
    0.6136    2.5409    0.0000 C   0  0
    0.6821    3.3595    0.0000 C   0  0
    0.0056    3.8323    0.0000 C   0  0
   -0.7417    3.4804    0.0000 C   0  0
   -0.8125    2.6558    0.0000 C   0  0
  1  2  1  0
  1  3  2  0
  1  4  1  0
  2  5  2  0
  2  6  1  0
  3  7  1  0
  5  8  1  0
  7  8  2  0
  8  9  1  0
 10 11  2  0
 11 12  1  0
 12 13  2  0
 13 14  1  0
 14 15  2  0
 15 10  1  0
 14 16  1  0
 16 17  1  0
 17 18  1  0
 18 19  2  0
 19 20  1  0
 20 16  2  0
 11 21  1  0
 18 22  1  0
 22  9  1  0
 19 23  1  0
 21 24  1  0
 23 25  1  0
  4 26  2  0
 26 27  1  0
 27 28  1  0
 28 29  1  0
 29  4  1  0
 28 30  2  0
 25 31  1  0
 25 35  1  0
 31 32  1  0
 32 33  1  0
 33 34  1  0
 34 35  1  0
M  END
>  <ID_NEW>
CPDPP3247

>  <pEC50>
6.797158170823847

$$$$

  SciTegic12180813082D

 39 42  0  0  0  0            999 V2000
   -2.1791    2.9527    0.0000 C   0  0
   -2.9066    2.5410    0.0000 C   0  0
   -2.1657    3.7986    0.0000 O   0  0
   -3.6290    2.9612    0.0000 C   0  0
   -4.3560    2.5377    0.0000 C   0  0
   -4.3617    1.7035    0.0000 C   0  0
   -3.6302    1.2819    0.0000 C   0  0
   -2.9102    1.7037    0.0000 C   0  0
   -2.1774    1.2691    0.0000 O   0  0
   -2.1865    0.4233    0.0000 C   0  0
   -1.4619    0.0055    0.0000 C   0  0
   -5.0969    1.2783    0.0000 C   0  0
   -5.8319    0.8567    0.0000 F   0  0
   -5.5170    2.0134    0.0000 F   0  0
   -4.6735    0.5434    0.0000 F   0  0
    4.6903    1.3076    0.0000 C   0  0
    5.3085    1.3909    0.0000 S   0  0
    4.5804    0.7026    0.0000 N   0  0
    5.1290    0.4072    0.0000 N   0  0
    5.5738    0.8352    0.0000 C   0  0
    6.1937    0.7273    0.0000 C   0  0
    6.5978    1.1997    0.0000 C   0  0
    6.4091    0.1439    0.0000 C   0  0
    3.4029    1.7098    0.0000 S   0  0
    3.4013    2.5168    0.0000 O   0  0
    4.2257    1.7111    0.0000 N   0  0
    3.4030    0.8989    0.0000 O   0  0
    2.5755    1.7065    0.0000 C   0  0
    1.3414    0.9987    0.0000 C   0  0
    2.1688    1.0048    0.0000 C   0  0
    2.1558    2.4027    0.0000 C   0  0
    1.3254    2.3925    0.0000 C   0  0
    0.9225    1.6903    0.0000 C   0  0
    0.0956    1.7075    0.0000 C   0  0
   -0.3148    2.4379    0.0000 C   0  0
   -1.4320    2.4341    0.0000 N   0  0
    0.5099    0.6809    0.0000 C   0  0
   -0.8824    1.3721    0.0000 C   0  0
   -0.5253    0.3228    0.0000 C   0  0
 36  1  1  0
 32 33  2  0
 33 29  1  0
 34 38  1  0
 34 37  1  0
 33 34  1  0
 35 36  1  0
 34 35  1  0
 24 28  1  0
 24 27  2  0
 24 25  2  0
 24 26  1  0
 19 20  2  0
 20 21  1  0
 21 22  1  0
 21 23  1  0
 26 16  1  0
 16 17  1  0
 39 38  1  0
 37 39  1  0
 17 20  1  0
 19 18  1  0
 18 16  2  0
 29 30  2  0
 30 28  1  0
 28 31  2  0
 31 32  1  0
  1  2  1  0
  1  3  2  0
  2  4  2  0
  4  5  1  0
  5  6  2  0
  6  7  1  0
  7  8  2  0
  8  2  1  0
  8  9  1  0
  9 10  1  0
 10 11  1  0
  6 12  1  0
 12 13  1  0
 12 14  1  0
 12 15  1  0
M  END
>  <ID_NEW>
CPDPP3248

>  <pEC50>
6.7780368441035845

$$$$

  SciTegic12180813592D

 42 45  0  0  0  0            999 V2000
   -0.3480    2.4246    0.0000 C   0  0
   -0.7625    2.6440    0.0000 C   0  0
   -1.5642    2.6222    0.0000 C   0  0
   -1.5815    3.0950    0.0000 C   0  0
   -1.1833    3.3371    0.0000 C   0  0
   -0.7675    3.1159    0.0000 C   0  0
   -1.1530    2.4015    0.0000 C   0  0
   -1.1436    1.9309    0.0000 O   0  0
   -3.1960    3.1477    0.0000 C   0  0
   -3.5701    3.3556    0.0000 S   0  0
   -3.8859    3.0689    0.0000 C   0  0
   -3.7098    2.6811    0.0000 N   0  0
   -3.2909    2.7213    0.0000 C   0  0
   -4.2983    3.1617    0.0000 C   0  0
   -4.4322    3.5643    0.0000 C   0  0
   -4.8480    3.6531    0.0000 C   0  0
   -5.1325    3.3349    0.0000 C   0  0
   -4.9994    2.9331    0.0000 C   0  0
   -4.5846    2.8439    0.0000 C   0  0
   -5.5493    3.4225    0.0000 C   0  0
   -5.6750    3.8332    0.0000 F   0  0
   -5.8317    3.1080    0.0000 F   0  0
   -5.3577    3.8073    0.0000 F   0  0
   -3.0020    2.4117    0.0000 C   0  0
   -2.7847    3.3649    0.0000 C   0  0
   -2.3914    3.1185    0.0000 N   0  0
   -1.9773    3.3425    0.0000 C   0  0
    0.0500    2.1875    0.0000 N   0  0
   -2.0555    2.2487    0.0000 C   0  0
   -2.4071    2.5485    0.0000 C   0  0
   -1.7144    2.4722    0.0000 F   0  0
   -2.0283    1.8378    0.0000 F   0  0
   -1.8273    2.0596    0.0000 F   0  0
   -0.7300    1.7032    0.0000 C   0  0
   -0.7207    1.2327    0.0000 C   0  0
   -1.1249    0.9857    0.0000 F   0  0
   -0.3071    1.0008    0.0000 F   0  0
   -1.1805    1.3452    0.0000 F   0  0
    0.5061    2.5660    0.0000 O   0  0
   -0.1181    2.8335    0.0000 N   0  0
    0.2833    3.0750    0.0000 C   0  0
    0.3807    3.4361    0.0000 O   0  0
 28 39  1  0
  7  8  1  0
  1 40  1  0
 18 19  2  0
 40 41  1  0
 41 39  1  0
 19 14  1  0
 41 42  2  0
  3  4  2  0
 17 20  1  0
  9 10  1  0
 20 21  1  0
 20 22  1  0
  4  5  1  0
 20 23  1  0
  2  1  1  0
 13 24  1  0
  5  6  2  0
 10 11  1  0
 26 25  1  0
 25  9  1  0
 11 12  2  0
 26 27  1  0
 27  4  1  0
 12 13  1  0
  1 28  2  0
 13  9  2  0
  6  2  1  0
 29 30  1  0
 11 14  1  0
 29 31  1  0
 29 32  1  0
 14 15  2  0
 29 33  1  0
 26 30  1  0
  2  7  2  0
  8 34  1  0
 15 16  1  0
 34 35  1  0
  7  3  1  0
 35 36  1  0
 16 17  2  0
 35 37  1  0
 35 38  1  0
 17 18  1  0
M  END
>  <ID_NEW>
CPDPP3249

>  <pEC50>
6.77660960213165

$$$$

  SciTegic12180813082D

 33 35  0  0  0  0            999 V2000
   -2.3221    2.8601    0.0000 C   0  0
   -1.7518    3.2249    0.0000 S   0  0
   -1.3856    2.6554    0.0000 O   0  0
   -2.1181    3.7981    0.0000 O   0  0
   -1.1798    3.5943    0.0000 N   0  0
   -4.6664    2.1654    0.0000 C   0  0
   -4.0780    1.8289    0.0000 C   0  0
   -3.4916    2.1716    0.0000 C   0  0
   -2.9025    1.8339    0.0000 C   0  0
   -2.3165    2.1801    0.0000 C   0  0
   -2.9155    3.1922    0.0000 C   0  0
   -3.4985    2.8478    0.0000 C   0  0
   -0.5744    3.2853    0.0000 C   0  0
   -0.4737    2.6122    0.0000 S   0  0
    0.1992    2.5070    0.0000 C   0  0
    0.5082    3.1123    0.0000 N   0  0
    0.0256    3.5924    0.0000 N   0  0
    0.5060    1.9005    0.0000 C   0  0
    0.1348    1.3301    0.0000 F   0  0
    1.1840    1.8644    0.0000 F   0  0
   -5.8269    0.1218    0.0000 C   0  0
   -5.2397   -0.2190    0.0000 C   0  0
   -5.2468    1.1394    0.0000 C   0  0
   -5.8313    0.7976    0.0000 N   0  0
   -4.6549    0.8048    0.0000 C   0  0
   -4.6543    0.1205    0.0000 C   0  0
   -5.2529    1.8185    0.0000 N   0  0
   -5.2399   -0.8981    0.0000 C   0  0
   -5.2385   -1.5181    0.0000 F   0  0
   -5.7885   -1.3484    0.0000 F   0  0
   -4.6883   -1.3487    0.0000 F   0  0
   -4.0678    1.1477    0.0000 Cl  0  0
    0.9603    1.3950    0.0000 F   0  0
 12  8  1  0
  5 13  1  0
 13 14  1  0
 14 15  1  0
 15 16  2  0
 16 17  1  0
 17 13  2  0
 15 18  1  0
 18 19  1  0
 18 20  1  0
  1  2  1  0
  2  3  2  0
  2  4  2  0
  2  5  1  0
 21 22  2  0
 22 26  1  0
 25 23  1  0
 23 24  2  0
 24 21  1  0
 25 26  2  0
 23 27  1  0
 27  6  1  0
  6  7  1  0
  7  8  1  0
  8  9  2  0
 22 28  1  0
 28 29  1  0
 28 30  1  0
 28 31  1  0
 25 32  1  0
 18 33  1  0
  9 10  1  0
 10  1  2  0
  1 11  1  0
 11 12  2  0
M  END
>  <ID_NEW>
CPDPP3250

>  <pEC50>
6.7500491630656265

$$$$

  SciTegic12180813062D

 30 34  0  0  0  0            999 V2000
   -6.8471    5.7161    0.0000 C   0  0
   -7.4137    6.5401    0.0000 C   0  0
   -5.8474    5.6902    0.0000 C   0  0
   -7.4556    4.9226    0.0000 S   0  0
   -8.3725    6.2558    0.0000 N   0  0
   -7.0802    7.4828    0.0000 C   0  0
   -5.3700    4.8116    0.0000 O   0  0
   -8.3984    5.2561    0.0000 C   0  0
   -4.3704    4.7857    0.0000 C   0  0
   -3.8929    3.9070    0.0000 C   0  0
   -2.8933    3.8811    0.0000 C   0  0
   -2.3710    4.7339    0.0000 C   0  0
   -2.8484    5.6126    0.0000 C   0  0
   -3.8481    5.6385    0.0000 C   0  0
   -1.3714    4.7080    0.0000 C   0  0
   -2.3262    6.4654    0.0000 Cl  0  0
   -0.8047    3.8841    0.0000 N   0  0
    0.1540    4.1684    0.0000 C   0  0
    0.1799    5.1680    0.0000 O   0  0
   -0.7628    5.5016    0.0000 N   0  0
    0.9476    3.5598    0.0000 O   0  0
  -10.2070    3.4055    0.0000 C   0  0
  -10.7736    4.2295    0.0000 C   0  0
   -9.2482    3.6898    0.0000 C   0  0
  -10.6372    2.5028    0.0000 C   0  0
  -10.1651    5.0230    0.0000 S   0  0
  -11.7705    4.1507    0.0000 C   0  0
   -9.2223    4.6895    0.0000 C   0  0
  -11.6341    2.4241    0.0000 C   0  0
  -12.2007    3.2480    0.0000 C   0  0
  9 10  2  0
 10 11  1  0
 11 12  2  0
 12 13  1  0
 13 14  2  0
 14  9  1  0
 12 15  1  0
 13 16  1  0
 15 17  2  0
 17 18  1  0
 18 19  1  0
 19 20  1  0
 20 15  1  0
 18 21  2  0
  1  2  2  0
  1  3  1  0
  1  4  1  0
  2  5  1  0
  2  6  1  0
  3  7  1  0
  4  8  1  0
  5  8  2  0
  7  9  1  0
 22 23  1  0
 22 24  1  0
 22 25  2  0
 23 26  1  0
 23 27  2  0
 24 28  2  0
 25 29  1  0
 27 30  1  0
 26 28  1  0
 29 30  2  0
  8 28  1  0
M  END
>  <ID_NEW>
CPDPP3251

>  <pEC50>
6.731711712390645

$$$$

  SciTegic12180813032D

 39 43  0  0  0  0            999 V2000
   -3.7917    3.2708    0.0000 C   0  0
   -3.7917    2.6917    0.0000 C   0  0
   -3.2838    2.4000    0.0000 C   0  0
   -2.7801    2.6917    0.0000 N   0  0
   -2.7801    3.2708    0.0000 C   0  0
   -3.2838    3.5667    0.0000 C   0  0
   -4.7681    0.3500    0.0000 C   0  0
   -4.7693   -0.2648    0.0000 C   0  0
   -4.2378   -0.5694    0.0000 C   0  0
   -3.7047   -0.2644    0.0000 C   0  0
   -3.7075    0.3537    0.0000 C   0  0
   -4.2396    0.6586    0.0000 C   0  0
   -5.3049   -0.5684    0.0000 C   0  0
   -5.8315   -0.2637    0.0000 F   0  0
   -5.3055   -1.1851    0.0000 F   0  0
   -5.4594    0.0245    0.0000 F   0  0
   -3.2106    0.7175    0.0000 C   0  0
   -2.6251    0.5311    0.0000 S   0  0
   -2.2649    1.0274    0.0000 C   0  0
   -2.6244    1.5243    0.0000 C   0  0
   -3.2092    1.3365    0.0000 N   0  0
   -2.4315    2.1046    0.0000 C   0  0
   -1.6482    1.0269    0.0000 C   0  0
   -1.3194    1.3581    0.0000 O   0  0
   -0.8386    1.3548    0.0000 C   0  0
   -0.5990    0.9393    0.0000 C   0  0
   -0.1188    0.9357    0.0000 C   0  0
    0.1251    1.3494    0.0000 C   0  0
   -0.1159    1.7720    0.0000 C   0  0
   -0.5992    1.7728    0.0000 C   0  0
    0.1181    0.5196    0.0000 F   0  0
    0.6066    1.3470    0.0000 C   0  0
    0.8864    0.9558    0.0000 N   0  0
    1.3460    1.1039    0.0000 O   0  0
    1.3474    1.5905    0.0000 C   0  0
    0.8887    1.7371    0.0000 N   0  0
    1.7355    1.8713    0.0000 O   0  0
   -4.3002    3.1312    0.0000 F   0  0
   -3.9753    3.8310    0.0000 F   0  0
  1  2  1  0
  1  6  1  0
  2  3  1  0
  3  4  1  0
  4  5  1  0
  5  6  1  0
  7  8  2  0
  8  9  1  0
  9 10  2  0
 10 11  1  0
 11 12  2  0
 12  7  1  0
  8 13  1  0
 13 14  1  0
 13 15  1  0
 13 16  1  0
 11 17  1  0
 20 21  1  0
 18 19  1  0
 17 18  1  0
 19 20  2  0
 21 17  2  0
 20 22  1  0
 19 23  1  0
 23 24  1  0
 24 25  1  0
 25 26  2  0
 26 27  1  0
 27 28  2  0
 28 29  1  0
 29 30  2  0
 30 25  1  0
 27 31  1  0
 28 32  1  0
 33 34  1  0
 32 33  2  0
 34 35  1  0
 35 36  1  0
 36 32  1  0
 35 37  2  0
 22  4  1  0
  1 38  1  0
  1 39  1  0
M  END
>  <ID_NEW>
CPDPP3252

>  <pEC50>
6.727738439706622

$$$$

  -MTS-   10172316532D 0   0.00000     0.00000     0

 34 37  0  0  1  0  0  0  0  0999 V2000
   -1.1710   -1.4590    0.0000 C   0  0  0  0  0  0  0  0  0  0  0  0
   -0.5240   -1.0860    0.0000 C   0  0  1  0  0  0  0  0  0  0  0  0
   -0.5150   -0.3410    0.0000 N   0  0  0  0  0  0  0  0  0  0  0  0
   -1.1700    0.0410    0.0000 C   0  0  1  0  0  0  0  0  0  0  0  0
   -1.8130   -0.3320    0.0000 C   0  0  0  0  0  0  0  0  0  0  0  0
   -1.8200   -1.0870    0.0000 N   0  0  0  0  0  0  0  0  0  0  0  0
    0.1220   -1.4600    0.0000 C   0  0  0  0  0  0  0  0  0  0  0  0
   -1.1540    0.7910    0.0000 C   0  0  0  0  0  0  0  0  0  0  0  0
   -5.0540   -2.2390    0.0000 C   0  0  0  0  0  0  0  0  0  0  0  0
   -5.0610   -1.4890    0.0000 F   0  0  0  0  0  0  0  0  0  0  0  0
   -5.7080   -2.6110    0.0000 F   0  0  0  0  0  0  0  0  0  0  0  0
   -5.7070   -1.8520    0.0000 F   0  0  0  0  0  0  0  0  0  0  0  0
   -2.4540   -1.4720    0.0000 C   0  0  0  0  0  0  0  0  0  0  0  0
   -3.1050   -1.0870    0.0000 C   0  0  0  0  0  0  0  0  0  0  0  0
   -3.7550   -1.4720    0.0000 C   0  0  0  0  0  0  0  0  0  0  0  0
   -3.7570   -2.2230    0.0000 C   0  0  0  0  0  0  0  0  0  0  0  0
   -3.0900   -2.5870    0.0000 C   0  0  0  0  0  0  0  0  0  0  0  0
   -2.4430   -2.2240    0.0000 C   0  0  0  0  0  0  0  0  0  0  0  0
   -4.4070   -2.6020    0.0000 O   0  0  0  0  0  0  0  0  0  0  0  0
    0.1150    0.0570    0.0000 S   0  0  0  0  0  0  0  0  0  0  0  0
    1.4110    0.0600    0.0000 C   0  0  0  0  0  0  0  0  0  0  0  0
    2.0650    0.4340    0.0000 C   0  0  0  0  0  0  0  0  0  0  0  0
    2.0630    1.1840    0.0000 C   0  0  0  0  0  0  0  0  0  0  0  0
    0.7590    0.4340    0.0000 C   0  0  0  0  0  0  0  0  0  0  0  0
    0.7610    1.1820    0.0000 C   0  0  0  0  0  0  0  0  0  0  0  0
    1.4090    1.5510    0.0000 C   0  0  0  0  0  0  0  0  0  0  0  0
    1.2480    2.2930    0.0000 C   0  0  0  0  0  0  0  0  0  0  0  0
    0.4980    2.3660    0.0000 C   0  0  2  0  0  0  0  0  0  0  0  0
    0.1940    1.6820    0.0000 C   0  0  0  0  0  0  0  0  0  0  0  0
    0.1240    3.0210    0.0000 C   0  0  0  0  0  0  0  0  0  0  0  0
    0.4970    3.6720    0.0000 O   0  0  0  0  0  0  0  0  0  0  0  0
   -0.6260    3.0170    0.0000 O   0  0  0  0  0  0  0  0  0  0  0  0
    0.5120   -0.5800    0.0000 O   0  0  0  0  0  0  0  0  0  0  0  0
   -0.2850    0.6800    0.0000 O   0  0  0  0  0  0  0  0  0  0  0  0
  4  5  1  0  0  0  0
  5  6  1  0  0  0  0
  2  7  1  1  0  0  0
  4  8  1  1  0  0  0
  1  2  1  0  0  0  0
  1  6  1  0  0  0  0
  2  3  1  0  0  0  0
  3  4  1  0  0  0  0
 13 14  2  0  0  0  0
 14 15  1  0  0  0  0
 15 16  2  0  0  0  0
 16 17  1  0  0  0  0
 17 18  2  0  0  0  0
 18 13  1  0  0  0  0
 16 19  1  0  0  0  0
 19  9  1  0  0  0  0
  9 10  1  0  0  0  0
  9 11  1  0  0  0  0
  9 12  1  0  0  0  0
  6 13  1  0  0  0  0
 25 24  2  0  0  0  0
 24 21  1  0  0  0  0
 25 26  1  0  0  0  0
 26 27  1  0  0  0  0
 27 28  1  0  0  0  0
 28 29  1  0  0  0  0
 29 25  1  0  0  0  0
 28 30  1  6  0  0  0
 30 31  1  0  0  0  0
 30 32  2  0  0  0  0
 21 22  2  0  0  0  0
 22 23  1  0  0  0  0
 23 26  2  0  0  0  0
 24 20  1  0  0  0  0
 20 33  2  0  0  0  0
 20  3  1  0  0  0  0
 20 34  2  0  0  0  0
M  END
>  <ID_NEW>
CPDPP3253

>  <pEC50>
6.68370752976816

$$$$

  SciTegic12180813022D

 27 30  0  0  0  0            999 V2000
   -4.3992    1.6619    0.0000 C   0  0
   -3.6863    2.0771    0.0000 C   0  0
   -5.1181    2.0767    0.0000 C   0  0
   -5.8289    1.6650    0.0000 C   0  0
   -5.8300    0.8396    0.0000 C   0  0
   -5.1141    0.4276    0.0000 C   0  0
   -4.3971    0.8410    0.0000 C   0  0
   -2.9317    1.7470    0.0000 S   0  0
   -2.3820    2.3622    0.0000 C   0  0
   -2.7973    3.0751    0.0000 C   0  0
   -3.6035    2.9004    0.0000 N   0  0
   -2.4646    3.8301    0.0000 C   0  0
   -1.5612    2.2790    0.0000 C   0  0
   -1.2229    1.5266    0.0000 O   0  0
   -0.4021    1.4434    0.0000 C   0  0
   -0.0688    0.6902    0.0000 C   0  0
    0.7512    0.6067    0.0000 C   0  0
    1.2346    1.2764    0.0000 C   0  0
    0.8921    2.0316    0.0000 C   0  0
    0.0731    2.1115    0.0000 C   0  0
    1.3722    2.7025    0.0000 Cl  0  0
    2.0555    1.1942    0.0000 C   0  0
    2.4723    0.4840    0.0000 N   0  0
    3.2784    0.6595    0.0000 O   0  0
    3.3606    1.4804    0.0000 C   0  0
    2.6053    1.8121    0.0000 N   0  0
    4.0730    1.8965    0.0000 O   0  0
  1  2  1  0
  1  3  1  0
  1  7  1  0
  8  9  1  0
  9 10  2  0
 10 11  1  0
 11  2  2  0
  3  4  1  0
 10 12  1  0
  4  5  1  0
  9 13  1  0
  5  6  1  0
  6  7  1  0
  2  8  1  0
 13 14  1  0
 14 15  1  0
 15 16  2  0
 16 17  1  0
 17 18  2  0
 18 19  1  0
 19 20  2  0
 20 15  1  0
 19 21  1  0
 18 22  1  0
 22 23  2  0
 23 24  1  0
 24 25  1  0
 25 26  1  0
 26 22  1  0
 25 27  2  0
M  END
>  <ID_NEW>
CPDPP3254

>  <pEC50>
6.669054880108027

$$$$

  SciTegic12180813582D

 37 41  0  0  0  0            999 V2000
    8.5340   -5.9667    0.0000 C   0  0
    8.0070   -6.5993    0.0000 N   0  0
    8.4429   -7.2943    0.0000 C   0  0
    9.2342   -7.1019    0.0000 O   0  0
    9.2992   -6.2807    0.0000 N   0  0
    8.1451   -8.0638    0.0000 O   0  0
    8.5341   -5.1375    0.0000 C   0  0
    7.8176   -3.8975    0.0000 C   0  0
    7.8167   -4.7253    0.0000 C   0  0
    9.2488   -4.7274    0.0000 C   0  0
    9.2499   -3.8964    0.0000 C   0  0
    8.5359   -3.4837    0.0000 C   0  0
    8.5333   -2.6583    0.0000 S   0  0
    9.3592   -2.6623    0.0000 O   0  0
    7.7083   -2.6587    0.0000 O   0  0
    7.0978   -5.1497    0.0000 Cl  0  0
    5.2655    0.5323    0.0000 C   0  0
    4.4340    0.5321    0.0000 C   0  0
    4.0198   -0.1937    0.0000 C   0  0
    4.4318   -0.9074    0.0000 C   0  0
    5.2623   -0.9074    0.0000 C   0  0
    5.6769   -0.1851    0.0000 C   0  0
    3.1949   -0.1990    0.0000 C   0  0
    2.3673   -0.2039    0.0000 F   0  0
    3.1976   -1.0244    0.0000 F   0  0
    3.1902    0.6282    0.0000 F   0  0
    6.3943   -0.5999    0.0000 C   0  0
    6.3931   -1.4231    0.0000 C   0  0
    7.1122   -1.8360    0.0000 C   0  0
    7.1104   -0.1872    0.0000 C   0  0
    7.8215   -0.5963    0.0000 C   0  0
    7.8246   -1.4248    0.0000 C   0  0
    8.5333   -1.8335    0.0000 N   0  0
    9.2520   -1.4226    0.0000 C   0  0
    9.2532   -0.5983    0.0000 C   0  0
    8.5357   -0.1849    0.0000 C   0  0
    8.5357    0.6401    0.0000 N   0  0
  5  1  2  0
  3  6  2  0
  1  2  1  0
  2  3  1  0
  3  4  1  0
  4  5  1  0
  7  1  1  0
 12  8  1  0
  8  9  2  0
  7 10  2  0
  9 16  1  0
 12 13  1  0
 13 14  2  0
 10 11  1  0
 13 15  2  0
  9  7  1  0
 11 12  2  0
 22 17  1  0
 17 18  2  0
 19 20  2  0
 19 23  1  0
 23 24  1  0
 20 21  1  0
 23 25  1  0
 18 19  1  0
 27 22  1  0
 23 26  1  0
 21 22  2  0
 32 33  1  0
 33 34  1  0
 34 35  1  0
 35 36  1  0
 31 32  1  0
 36 37  1  0
 28 29  1  0
 29 32  2  0
 27 28  2  0
 31 30  2  0
 30 27  1  0
 31 36  1  0
 33 13  1  0
M  END
>  <ID_NEW>
CPDPP3255

>  <pEC50>
6.660150034887618

$$$$

  -MTS-   10172316532D 0   0.00000     0.00000     0

 39 42  0  0  0  0  0  0  0  0999 V2000
   -4.5090    0.9410    0.0000 C   0  0  0  0  0  0  0  0  0  0  0  0
   -4.5180    1.6630    0.0000 C   0  0  0  0  0  0  0  0  0  0  0  0
   -3.8800    0.5890    0.0000 C   0  0  0  0  0  0  0  0  0  0  0  0
   -3.9000    2.0320    0.0000 C   0  0  0  0  0  0  0  0  0  0  0  0
   -3.2520    0.9560    0.0000 C   0  0  0  0  0  0  0  0  0  0  0  0
   -3.2710    1.6800    0.0000 C   0  0  0  0  0  0  0  0  0  0  0  0
   -3.9080    2.7590    0.0000 O   0  0  0  0  0  0  0  0  0  0  0  0
   -2.6410    2.0450    0.0000 C   0  0  0  0  0  0  0  0  0  0  0  0
   -2.6410    2.7500    0.0000 O   0  0  0  0  0  0  0  0  0  0  0  0
   -5.1220    0.5760    0.0000 C   0  0  0  0  0  0  0  0  0  0  0  0
   -4.5330    3.1150    0.0000 C   0  0  0  0  0  0  0  0  0  0  0  0
   -4.5450    3.8300    0.0000 C   0  0  0  0  0  0  0  0  0  0  0  0
   -5.6860    0.2370    0.0000 F   0  0  0  0  0  0  0  0  0  0  0  0
   -5.2340   -0.1770    0.0000 F   0  0  0  0  0  0  0  0  0  0  0  0
   -5.8330    0.8240    0.0000 F   0  0  0  0  0  0  0  0  0  0  0  0
    2.5950    2.8030    0.0000 N   0  0  0  0  0  0  0  0  0  0  0  0
    3.3080    2.3860    0.0000 C   0  0  0  0  0  0  0  0  0  0  0  0
    3.4800    1.5710    0.0000 N   0  0  0  0  0  0  0  0  0  0  0  0
    4.3000    1.4820    0.0000 N   0  0  0  0  0  0  0  0  0  0  0  0
    4.6420    2.2280    0.0000 C   0  0  0  0  0  0  0  0  0  0  0  0
    4.0300    2.7920    0.0000 S   0  0  0  0  0  0  0  0  0  0  0  0
    5.4580    2.3930    0.0000 C   0  0  0  0  0  0  0  0  0  0  0  0
    5.9940    1.7710    0.0000 C   0  0  0  0  0  0  0  0  0  0  0  0
    5.7280    3.1640    0.0000 C   0  0  0  0  0  0  0  0  0  0  0  0
    1.9100    2.3440    0.0000 S   0  0  0  0  0  0  0  0  0  0  0  0
    1.4470    3.0360    0.0000 O   0  0  0  0  0  0  0  0  0  0  0  0
    2.3750    1.6540    0.0000 O   0  0  0  0  0  0  0  0  0  0  0  0
    1.2200    1.8780    0.0000 C   0  0  0  0  0  0  0  0  0  0  0  0
   -0.2130    1.8710    0.0000 C   0  0  0  0  0  0  0  0  0  0  0  0
   -0.2130    1.0550    0.0000 C   0  0  0  0  0  0  0  0  0  0  0  0
    0.5020    2.2950    0.0000 C   0  0  0  0  0  0  0  0  0  0  0  0
    0.5040    0.6340    0.0000 C   0  0  0  0  0  0  0  0  0  0  0  0
    1.2280    1.0610    0.0000 C   0  0  0  0  0  0  0  0  0  0  0  0
   -0.9280    0.6440    0.0000 C   0  0  2  0  0  0  0  0  0  0  0  0
   -1.6850    0.9830    0.0000 C   0  0  1  0  0  0  0  0  0  0  0  0
   -2.2390    0.3710    0.0000 C   0  0  0  0  0  0  0  0  0  0  0  0
   -1.8290   -0.3450    0.0000 C   0  0  0  0  0  0  0  0  0  0  0  0
   -1.0210   -0.1760    0.0000 C   0  0  0  0  0  0  0  0  0  0  0  0
   -1.8550    1.7900    0.0000 N   0  0  0  0  0  0  0  0  0  0  0  0
 10 15  1  0  0  0  0
  8  9  2  0  0  0  0
  5  6  1  0  0  0  0
  1 10  1  0  0  0  0
  1  2  2  0  0  0  0
  1  3  1  0  0  0  0
  2  4  1  0  0  0  0
  3  5  2  0  0  0  0
  4  6  2  0  0  0  0
  4  7  1  0  0  0  0
  6  8  1  0  0  0  0
  7 11  1  0  0  0  0
 11 12  1  0  0  0  0
 10 13  1  0  0  0  0
 10 14  1  0  0  0  0
 22 23  1  0  0  0  0
 22 24  1  0  0  0  0
 16 17  1  0  0  0  0
 17 18  2  0  0  0  0
 18 19  1  0  0  0  0
 16 25  1  0  0  0  0
 25 26  2  0  0  0  0
 25 27  2  0  0  0  0
 25 28  1  0  0  0  0
 28 33  1  0  0  0  0
 29 30  2  0  0  0  0
 29 31  1  0  0  0  0
 30 32  1  0  0  0  0
 31 28  2  0  0  0  0
 32 33  2  0  0  0  0
 34 30  1  1  0  0  0
 34 35  1  0  0  0  0
 35 36  1  0  0  0  0
 36 37  1  0  0  0  0
 37 38  1  0  0  0  0
 38 34  1  0  0  0  0
 35 39  1  1  0  0  0
 19 20  2  0  0  0  0
 20 21  1  0  0  0  0
 21 17  1  0  0  0  0
 20 22  1  0  0  0  0
 39  8  1  0  0  0  0
V   34 M1
V   35 M1
M  END
>  <ID_NEW>
CPDPP3256

>  <pEC50>
6.657163305679111

$$$$

  SciTegic12180813092D

 35 38  0  0  0  0            999 V2000
   -3.5538    2.6027    0.0000 C   0  0
   -3.9797    2.5439    0.0000 C   0  0
   -3.3153    2.9837    0.0000 S   0  0
   -3.2624    2.2716    0.0000 N   0  0
   -4.1451    2.1435    0.0000 C   0  0
   -4.2389    2.9012    0.0000 C   0  0
   -2.8857    2.8869    0.0000 C   0  0
   -2.8568    2.4183    0.0000 C   0  0
   -4.5808    2.0897    0.0000 C   0  0
   -4.6786    2.8395    0.0000 C   0  0
   -2.5496    3.1653    0.0000 C   0  0
   -2.4801    2.1868    0.0000 C   0  0
   -4.8434    2.4412    0.0000 C   0  0
   -2.0782    3.0013    0.0000 O   0  0
   -5.2673    2.3814    0.0000 C   0  0
   -5.7083    2.3490    0.0000 F   0  0
   -5.2335    1.9557    0.0000 F   0  0
   -5.3086    2.8171    0.0000 F   0  0
   -1.6030    2.8436    0.0000 C   0  0
   -1.5083    2.3678    0.0000 C   0  0
   -1.0380    2.2183    0.0000 C   0  0
   -0.6718    2.5336    0.0000 C   0  0
   -0.7720    3.0219    0.0000 C   0  0
   -1.2505    3.1807    0.0000 C   0  0
   -0.9411    1.7294    0.0000 O   0  0
   -0.2040    2.3849    0.0000 C   0  0
    0.4098    2.6951    0.0000 N   0  0
    0.9830    2.2067    0.0000 O   0  0
   -0.0106    1.8292    0.0000 N   0  0
    0.6563    1.6670    0.0000 C   0  0
    0.9112    1.0527    0.0000 O   0  0
   -1.3152    1.3974    0.0000 C   0  0
   -1.2183    0.9085    0.0000 F   0  0
   -1.7861    1.5583    0.0000 F   0  0
   -1.3630    3.6728    0.0000 F   0  0
  1  2  1  0
  1  3  1  0
  1  4  2  0
  2  5  1  0
  2  6  2  0
  3  7  1  0
  4  8  1  0
  5  9  2  0
  6 10  1  0
  7 11  1  0
  8 12  1  0
  9 13  1  0
 11 14  1  0
 13 15  1  0
 15 16  1  0
 15 17  1  0
 15 18  1  0
  7  8  2  0
 10 13  2  0
 14 19  1  0
 19 20  2  0
 20 21  1  0
 21 22  2  0
 22 23  1  0
 23 24  2  0
 24 19  1  0
 21 25  1  0
 22 26  1  0
 26 27  2  0
 27 28  1  0
 26 29  1  0
 29 30  1  0
 28 30  1  0
 30 31  2  0
 25 32  1  0
 32 33  1  0
 32 34  1  0
 24 35  1  0
M  END
>  <ID_NEW>
CPDPP3257

>  <pEC50>
6.655028067019483

$$$$

  SciTegic12180812592D

 40 44  0  0  0  0            999 V2000
   -2.5339   -2.0465    0.0000 S   0  0
   -2.2750   -1.3442    0.0000 C   0  0
   -2.8597   -0.8761    0.0000 C   0  0
   -3.4875   -1.2949    0.0000 N   0  0
   -3.2827   -2.0143    0.0000 C   0  0
   -4.9571   -3.0830    0.0000 C   0  0
   -4.6785   -3.7812    0.0000 C   0  0
   -3.9360   -3.8905    0.0000 C   0  0
   -3.4721   -3.3016    0.0000 C   0  0
   -3.7465   -2.6032    0.0000 C   0  0
   -4.4891   -2.4940    0.0000 C   0  0
   -2.8318   -0.1274    0.0000 C   0  0
   -1.5473   -1.1393    0.0000 C   0  0
   -1.0121   -1.6628    0.0000 O   0  0
   -5.1424   -4.3702    0.0000 C   0  0
   -4.6968   -4.9694    0.0000 F   0  0
   -5.7048   -4.8672    0.0000 F   0  0
   -5.6916   -3.8531    0.0000 F   0  0
   -0.2885   -1.4621    0.0000 C   0  0
    0.2467   -1.9855    0.0000 C   0  0
    0.9703   -1.7849    0.0000 C   0  0
    1.1543   -1.0567    0.0000 C   0  0
    0.6191   -0.5333    0.0000 C   0  0
   -0.1044   -0.7339    0.0000 C   0  0
    1.8778   -0.8560    0.0000 C   0  0
    1.5055   -2.3083    0.0000 C   0  0
    2.4627   -1.3199    0.0000 N   0  0
    3.0903   -0.9052    0.0000 O   0  0
    2.8855   -0.1817    0.0000 C   0  0
    2.1367   -0.1537    0.0000 N   0  0
    3.3535    0.4072    0.0000 O   0  0
   -4.0354    2.1751    0.0000 N   0  0
   -3.3735    2.5214    0.0000 C   0  0
   -4.6694    2.5776    0.0000 C   0  0
   -4.0676    1.4263    0.0000 C   0  0
   -3.3414    3.2742    0.0000 C   0  0
   -4.6414    3.3263    0.0000 C   0  0
   -3.4336    1.0239    0.0000 C   0  0
   -3.9752    3.6726    0.0000 O   0  0
   -3.4657    0.2751    0.0000 N   0  0
 19 20  2  0
  1  2  1  0
 20 21  1  0
  3  4  1  0
 21 22  2  0
  4  5  2  0
 22 23  1  0
  5  1  1  0
 23 24  2  0
 24 19  1  0
  6  7  2  0
 22 25  1  0
  7  8  1  0
 21 26  1  0
  8  9  2  0
 25 27  2  0
 27 28  1  0
 28 29  1  0
 29 30  1  0
 30 25  1  0
 29 31  2  0
  9 10  1  0
 10 11  2  0
 11  6  1  0
 10  5  1  0
  3 12  1  0
  2 13  1  0
 13 14  1  0
  7 15  1  0
 15 16  1  0
 15 17  1  0
 15 18  1  0
 14 19  1  0
  2  3  2  0
 32 33  1  0
 32 34  1  0
 32 35  1  0
 33 36  1  0
 34 37  1  0
 35 38  1  0
 36 39  1  0
 38 40  1  0
 37 39  1  0
 12 40  1  0
M  END
>  <ID_NEW>
CPDPP3258

>  <pEC50>
6.653396803592947

$$$$

  SciTegic12180813532D

 32 36  0  0  0  0            999 V2000
    4.1711   -4.0217    0.0000 C   0  0
    3.9096   -4.8041    0.0000 N   0  0
    4.5717   -5.2889    0.0000 C   0  0
    5.2460   -4.8104    0.0000 O   0  0
    4.9947   -4.0280    0.0000 N   0  0
    4.5694   -6.1128    0.0000 O   0  0
   -0.4316    2.1134    0.0000 C   0  0
   -1.2589    2.1152    0.0000 C   0  0
   -1.6776    1.3882    0.0000 C   0  0
   -1.2659    0.6757    0.0000 N   0  0
   -0.4354    0.6780    0.0000 C   0  0
   -0.0205    1.3971    0.0000 C   0  0
   -2.5025    1.3849    0.0000 O   0  0
   -2.9141    0.6723    0.0000 C   0  0
    4.4763   -2.6305    0.0000 C   0  0
    4.2238   -1.8442    0.0000 C   0  0
    3.4188   -1.6679    0.0000 C   0  0
    2.8657   -2.2808    0.0000 C   0  0
    3.1183   -3.0656    0.0000 C   0  0
    3.9236   -3.2382    0.0000 C   0  0
    3.1656   -0.8799    0.0000 S   0  0
    2.3774   -1.1357    0.0000 O   0  0
    3.9533   -0.6288    0.0000 O   0  0
    2.9098   -0.0944    0.0000 N   0  0
    0.6986    0.9875    0.0000 C   0  0
    0.6974    0.1601    0.0000 C   0  0
    1.4164   -0.2527    0.0000 C   0  0
    1.4146    1.3961    0.0000 C   0  0
    2.1258    0.9869    0.0000 C   0  0
    2.1265    0.1605    0.0000 C   0  0
    3.3917    0.5687    0.0000 C   0  0
    2.9103    1.2386    0.0000 C   0  0
  1  2  1  0
  2  3  1  0
  3  4  1  0
  4  5  1  0
  5  1  2  0
  3  6  2  0
 12  7  1  0
  7  8  2  0
  9 13  1  0
  9 10  2  0
 13 14  1  0
 10 11  1  0
  8  9  1  0
 11 12  2  0
 21 23  2  0
 19 20  2  0
 20 15  1  0
 15 16  2  0
 20  1  1  0
 17 18  2  0
 17 21  1  0
 18 19  1  0
 21 22  2  0
 16 17  1  0
 26 27  1  0
 27 30  2  0
 25 26  2  0
 29 28  2  0
 30 24  1  0
 24 31  1  0
 31 32  1  0
 32 29  1  0
 28 25  1  0
 29 30  1  0
 24 21  1  0
 25 12  1  0
M  END
>  <ID_NEW>
CPDPP3259

>  <pEC50>
6.64781924529113

$$$$

  SciTegic12180813072D

 39 41  0  0  0  0            999 V2000
   -2.1791    2.9068    0.0000 C   0  0
   -2.9066    2.4951    0.0000 C   0  0
   -2.1657    3.7527    0.0000 O   0  0
   -3.6290    2.9153    0.0000 C   0  0
   -4.3560    2.4918    0.0000 C   0  0
   -4.3617    1.6576    0.0000 C   0  0
   -3.6302    1.2360    0.0000 C   0  0
   -2.9102    1.6578    0.0000 C   0  0
   -2.1774    1.2232    0.0000 O   0  0
   -2.1865    0.3774    0.0000 C   0  0
   -1.4619   -0.0404    0.0000 C   0  0
   -5.0969    1.2324    0.0000 C   0  0
   -5.8319    0.8108    0.0000 F   0  0
   -5.5170    1.9675    0.0000 F   0  0
   -4.6735    0.4975    0.0000 F   0  0
    4.1019    1.5041    0.0000 C   0  0
    4.8169    1.0949    0.0000 S   0  0
    4.2684    2.3109    0.0000 N   0  0
    5.0932    2.4003    0.0000 N   0  0
    5.4252    1.6496    0.0000 C   0  0
    6.2383    1.4800    0.0000 C   0  0
    7.0501    1.3100    0.0000 F   0  0
    6.0690    0.6691    0.0000 F   0  0
    6.4118    2.2859    0.0000 F   0  0
    3.3892    1.0941    0.0000 N   0  0
    1.9559    1.8995    0.0000 C   0  0
    2.6744    1.4972    0.0000 S   0  0
    3.0795    2.2122    0.0000 O   0  0
    2.2727    0.7751    0.0000 O   0  0
    1.2474    1.4765    0.0000 C   0  0
    1.9435    2.7219    0.0000 C   0  0
    1.2217    3.1257    0.0000 C   0  0
    0.5132    2.7105    0.0000 C   0  0
    0.5212    1.8808    0.0000 C   0  0
   -0.2072    3.1123    0.0000 C   0  0
    0.1989    3.8317    0.0000 C   0  0
   -0.9250    3.5151    0.0000 C   0  0
   -0.6081    2.3938    0.0000 C   0  0
   -1.4330    2.3855    0.0000 N   0  0
 19 18  1  0
 18 16  2  0
 19 20  2  0
 26 27  1  0
 27 28  2  0
 27 25  1  0
 27 29  2  0
 30 26  2  0
 26 31  1  0
 31 32  2  0
 32 33  1  0
 33 34  2  0
 34 30  1  0
 35 36  1  0
 35 37  1  0
 33 35  1  0
 35 38  1  0
 20 21  1  0
 21 22  1  0
 21 23  1  0
 21 24  1  0
 25 16  1  0
 16 17  1  0
 17 20  1  0
 39  1  1  0
 38 39  1  0
  1  2  1  0
  1  3  2  0
  2  4  2  0
  4  5  1  0
  5  6  2  0
  6  7  1  0
  7  8  2  0
  8  2  1  0
  8  9  1  0
  9 10  1  0
 10 11  1  0
  6 12  1  0
 12 13  1  0
 12 14  1  0
 12 15  1  0
M  END
>  <ID_NEW>
CPDPP3260

>  <pEC50>
6.632088547292945

$$$$

  SciTegic12180813022D

 37 40  0  0  0  0            999 V2000
   -0.8098    2.4542    0.0000 C   0  0
   -0.8109    1.9477    0.0000 C   0  0
   -0.3669    1.6931    0.0000 C   0  0
    0.0745    1.9481    0.0000 C   0  0
    0.0716    2.4578    0.0000 C   0  0
   -0.3688    2.7086    0.0000 C   0  0
    0.5116    2.7152    0.0000 C   0  0
    0.9545    2.4629    0.0000 N   0  0
    0.5168    1.6945    0.0000 O   0  0
    0.5167    1.1875    0.0000 C   0  0
   -3.1204    1.1277    0.0000 C   0  0
   -3.6714    1.0563    0.0000 C   0  0
   -2.8278    1.6087    0.0000 S   0  0
   -2.7624    0.7133    0.0000 N   0  0
   -3.8784    0.5518    0.0000 C   0  0
   -3.9931    1.5012    0.0000 C   0  0
   -2.2857    1.4827    0.0000 C   0  0
   -2.2527    0.9099    0.0000 C   0  0
   -4.4225    0.4855    0.0000 C   0  0
   -4.5494    1.4228    0.0000 C   0  0
   -1.8705    1.8403    0.0000 C   0  0
   -1.7884    0.6034    0.0000 C   0  0
   -4.7559    0.9245    0.0000 C   0  0
   -1.3532    1.6596    0.0000 O   0  0
   -5.2923    0.8605    0.0000 C   0  0
   -5.8333    0.8156    0.0000 F   0  0
   -5.2419    0.3140    0.0000 F   0  0
   -5.3420    1.3963    0.0000 F   0  0
   -1.8240    0.0476    0.0000 N   0  0
   -2.3258   -0.1985    0.0000 C   0  0
   -2.3625   -0.7518    0.0000 C   0  0
   -1.4000   -0.8168    0.0000 C   0  0
   -1.3619   -0.2594    0.0000 C   0  0
    0.5086    3.2249    0.0000 N   0  0
    1.3444    2.9161    0.0000 O   0  0
    1.0000    3.3583    0.0000 C   0  0
    1.1263    3.8302    0.0000 O   0  0
  7  8  2  0
  4  9  1  0
  9 10  1  0
 11 12  1  0
 11 13  1  0
 11 14  2  0
 12 15  1  0
 12 16  2  0
 13 17  1  0
 14 18  1  0
 15 19  2  0
 16 20  1  0
 17 21  1  0
 18 22  1  0
 19 23  1  0
 21 24  1  0
 23 25  1  0
 25 26  1  0
 25 27  1  0
 25 28  1  0
 17 18  2  0
 20 23  2  0
 22 29  1  0
 29 30  1  0
 29 33  1  0
 30 31  1  0
 32 33  1  0
  2 24  1  0
  7 34  1  0
  8 35  1  0
 34 36  1  0
 36 35  1  0
 36 37  2  0
  1  2  2  0
  2  3  1  0
  3  4  2  0
  4  5  1  0
  5  6  2  0
  6  1  1  0
  5  7  1  0
M  END
>  <ID_NEW>
CPDPP3261

>  <pEC50>
6.631669264024156

$$$$

  -MTS-   10172316532D 0   0.00000     0.00000     0

 44 48  0  0  0  0  0  0  0  0999 V2000
   -2.6960   -2.2620    0.0000 C   0  0  0  0  0  0  0  0  0  0  0  0
   -2.9420   -1.3540    0.0000 C   0  0  2  0  0  0  0  0  0  0  0  0
   -3.8460   -1.1140    0.0000 C   0  0  0  0  0  0  0  0  0  0  0  0
   -4.5110   -1.7790    0.0000 C   0  0  0  0  0  0  0  0  0  0  0  0
   -4.2650   -2.6870    0.0000 C   0  0  1  0  0  0  0  0  0  0  0  0
   -3.3540   -2.9310    0.0000 C   0  0  0  0  0  0  0  0  0  0  0  0
   -4.9270   -3.3510    0.0000 C   0  0  0  0  0  0  0  0  0  0  0  0
   -2.2800   -0.6900    0.0000 C   0  0  0  0  0  0  0  0  0  0  0  0
   -1.3530   -0.8370    0.0000 N   0  0  0  0  0  0  0  0  0  0  0  0
   -0.9290    0.0000    0.0000 C   0  0  0  0  0  0  0  0  0  0  0  0
   -1.5940    0.6610    0.0000 C   0  0  0  0  0  0  0  0  0  0  0  0
   -2.4280    0.2330    0.0000 S   0  0  0  0  0  0  0  0  0  0  0  0
   -0.0040    0.1490    0.0000 C   0  0  0  0  0  0  0  0  0  0  0  0
   -1.4500    1.5870    0.0000 C   0  0  0  0  0  0  0  0  0  0  0  0
   -0.5750    1.9250    0.0000 O   0  0  0  0  0  0  0  0  0  0  0  0
   -2.1800    2.1750    0.0000 C   0  0  0  0  0  0  0  0  0  0  0  0
   -3.0540    1.8370    0.0000 C   0  0  0  0  0  0  0  0  0  0  0  0
    0.3250    2.1750    0.0000 C   0  0  0  0  0  0  0  0  0  0  0  0
    0.9900    1.5170    0.0000 C   0  0  0  0  0  0  0  0  0  0  0  0
    1.8900    1.7660    0.0000 C   0  0  0  0  0  0  0  0  0  0  0  0
    2.1250    2.6710    0.0000 C   0  0  0  0  0  0  0  0  0  0  0  0
    1.4530    3.3270    0.0000 C   0  0  0  0  0  0  0  0  0  0  0  0
    0.5560    3.0750    0.0000 C   0  0  0  0  0  0  0  0  0  0  0  0
    3.0280    2.9230    0.0000 C   0  0  0  0  0  0  0  0  0  0  0  0
    3.6970    2.2660    0.0000 N   0  0  0  0  0  0  0  0  0  0  0  0
    3.2620    3.8300    0.0000 N   0  0  0  0  0  0  0  0  0  0  0  0
    2.5580    1.1080    0.0000 O   0  0  0  0  0  0  0  0  0  0  0  0
    2.3220    0.2010    0.0000 C   0  0  0  0  0  0  0  0  0  0  0  0
    0.5880   -0.5780    0.0000 N   0  0  0  0  0  0  0  0  0  0  0  0
    0.2510   -1.4550    0.0000 C   0  0  0  0  0  0  0  0  0  0  0  0
    0.8380   -2.1810    0.0000 C   0  0  0  0  0  0  0  0  0  0  0  0
    1.7650   -2.0360    0.0000 C   0  0  0  0  0  0  0  0  0  0  0  0
    2.1010   -1.1600    0.0000 C   0  0  0  0  0  0  0  0  0  0  0  0
    1.5110   -0.4280    0.0000 C   0  0  0  0  0  0  0  0  0  0  0  0
    2.3540   -2.7660    0.0000 C   0  0  0  0  0  0  0  0  0  0  0  0
    2.0170   -3.6410    0.0000 F   0  0  0  0  0  0  0  0  0  0  0  0
    3.2800   -2.6200    0.0000 F   0  0  0  0  0  0  0  0  0  0  0  0
    1.4970   -3.1460    0.0000 F   0  0  0  0  0  0  0  0  0  0  0  0
   -5.8330   -3.1100    0.0000 F   0  0  0  0  0  0  0  0  0  0  0  0
   -4.6830   -4.2560    0.0000 F   0  0  0  0  0  0  0  0  0  0  0  0
   -5.3970   -2.5400    0.0000 F   0  0  0  0  0  0  0  0  0  0  0  0
    4.1960    3.8330    0.0000 O   0  0  0  0  0  0  0  0  0  0  0  0
    4.5040    2.7370    0.0000 C   0  0  0  0  0  0  0  0  0  0  0  0
    5.3370    2.6500    0.0000 O   0  0  0  0  0  0  0  0  0  0  0  0
  1  2  1  0  0  0  0
  1  6  1  0  0  0  0
  2  3  1  0  0  0  0
  3  4  1  0  0  0  0
  4  5  1  0  0  0  0
  5  6  1  0  0  0  0
  5  7  1  1  0  0  0
  2  8  1  6  0  0  0
  8  9  2  0  0  0  0
  9 10  1  0  0  0  0
 10 11  2  0  0  0  0
 11 12  1  0  0  0  0
 12  8  1  0  0  0  0
 10 13  1  0  0  0  0
 11 14  1  0  0  0  0
 14 15  1  0  0  0  0
 14 16  1  0  0  0  0
 16 17  1  0  0  0  0
 15 18  1  0  0  0  0
 18 19  2  0  0  0  0
 19 20  1  0  0  0  0
 20 21  2  0  0  0  0
 21 22  1  0  0  0  0
 22 23  2  0  0  0  0
 23 18  1  0  0  0  0
 21 24  1  0  0  0  0
 24 25  1  0  0  0  0
 24 26  2  0  0  0  0
 20 27  1  0  0  0  0
 27 28  1  0  0  0  0
 13 29  1  0  0  0  0
 29 30  1  0  0  0  0
 29 34  1  0  0  0  0
 30 31  1  0  0  0  0
 31 32  1  0  0  0  0
 32 33  1  0  0  0  0
 33 34  1  0  0  0  0
 32 35  1  0  0  0  0
 35 36  1  0  0  0  0
 35 37  1  0  0  0  0
 35 38  1  0  0  0  0
  7 39  1  0  0  0  0
  7 40  1  0  0  0  0
  7 41  1  0  0  0  0
 26 42  1  0  0  0  0
 25 43  1  0  0  0  0
 43 44  2  0  0  0  0
 43 42  1  0  0  0  0
V    2 M1
V    5 M1
M  END
>  <ID_NEW>
CPDPP3262

>  <pEC50>
6.625124101396028

$$$$

  SciTegic12180813012D

 34 37  0  0  0  0            999 V2000
    4.6578    0.2645    0.0000 C   0  0
    3.9950   -0.9110    0.0000 C   0  0
    3.9966    1.4339    0.0000 C   0  0
    6.0096    0.2635    0.0000 C   0  0
    2.6398   -0.9100    0.0000 C   0  0
    4.6562   -2.1183    0.0000 C   0  0
    2.6414    1.4349    0.0000 C   0  0
    1.9406    0.2663    0.0000 C   0  0
    0.5721    0.2690    0.0000 O   0  0
   -4.1941    1.4767    0.0000 C   0  0
   -4.6016    0.7566    0.0000 C   0  0
   -4.1819    0.0459    0.0000 C   0  0
   -3.3548    0.0539    0.0000 C   0  0
   -2.9492    0.7787    0.0000 C   0  0
   -3.3713    1.4865    0.0000 C   0  0
   -2.1243    0.7900    0.0000 C   0  0
   -1.6293    0.1310    0.0000 O   0  0
   -0.8483    0.3967    0.0000 C   0  0
   -0.8596    1.2217    0.0000 C   0  0
   -1.6477    1.4657    0.0000 N   0  0
   -5.4266    0.7490    0.0000 O   0  0
   -0.1742   -0.0789    0.0000 C   0  0
   -0.1996    1.7180    0.0000 C   0  0
   -5.8325    0.0308    0.0000 C   0  0
   -0.1327    2.5403    0.0000 N   0  0
    0.6129    2.8935    0.0000 C   0  0
    6.8066   -0.8255    0.0000 N   0  0
    8.0925   -0.4087    0.0000 O   0  0
    8.0935    0.9432    0.0000 C   0  0
    6.8082    1.3617    0.0000 N   0  0
    9.1878    1.7371    0.0000 O   0  0
   -0.8114    3.0094    0.0000 C   0  0
   -0.7445    3.8316    0.0000 C   0  0
    0.6798    3.7157    0.0000 C   0  0
  1  2  1  0
  1  3  2  0
  1  4  1  0
  2  5  2  0
  2  6  1  0
  3  7  1  0
  5  8  1  0
  7  8  2  0
  8  9  1  0
 10 11  2  0
 11 12  1  0
 12 13  2  0
 13 14  1  0
 14 15  2  0
 15 10  1  0
 14 16  1  0
 16 17  1  0
 17 18  1  0
 18 19  2  0
 19 20  1  0
 20 16  2  0
 11 21  1  0
 18 22  1  0
 22  9  1  0
 19 23  1  0
 21 24  1  0
 23 25  1  0
 25 26  1  0
  4 27  2  0
 27 28  1  0
 28 29  1  0
 29 30  1  0
 30  4  1  0
 29 31  2  0
 25 32  1  0
 32 33  1  0
 26 34  1  0
M  END
>  <ID_NEW>
CPDPP3263

>  <pEC50>
6.622350420636211

$$$$

  SciTegic12180813042D

 33 36  0  0  0  0            999 V2000
   -4.7473   -1.0791    0.0000 C   0  0
   -4.7484   -1.7065    0.0000 C   0  0
   -4.2044   -2.0194    0.0000 C   0  0
   -3.6630   -1.7060    0.0000 C   0  0
   -3.6659   -1.0755    0.0000 C   0  0
   -4.2062   -0.7664    0.0000 C   0  0
   -5.2897   -2.0189    0.0000 C   0  0
   -5.8310   -1.7064    0.0000 F   0  0
   -5.2898   -2.6439    0.0000 F   0  0
   -5.4514   -1.4152    0.0000 F   0  0
   -3.1259   -0.7607    0.0000 C   0  0
   -2.5538   -1.0141    0.0000 N   0  0
   -2.1376   -0.5479    0.0000 C   0  0
   -2.4524   -0.0079    0.0000 C   0  0
   -3.0632   -0.1406    0.0000 S   0  0
   -1.5157   -0.6106    0.0000 C   0  0
   -2.2007    0.5641    0.0000 C   0  0
   -1.5794    0.6322    0.0000 O   0  0
   -1.3277    1.2042    0.0000 C   0  0
   -0.7083    1.2688    0.0000 C   0  0
   -0.4566    1.8402    0.0000 C   0  0
   -0.8262    2.3450    0.0000 C   0  0
   -1.4505    2.2746    0.0000 C   0  0
   -1.6994    1.7030    0.0000 C   0  0
    0.1648    1.9079    0.0000 O   0  0
    0.5341    1.4037    0.0000 C   0  0
   -0.5753    2.9174    0.0000 C   0  0
    0.0458    2.9208    0.0000 N   0  0
    0.4875    3.3667    0.0000 C   0  0
    1.0875    3.2083    0.0000 O   0  0
    0.0417    3.8125    0.0000 O   0  0
   -0.5833    3.8167    0.0000 N   0  0
   -1.2591   -1.1805    0.0000 O   0  0
  1  2  2  0
  2  3  1  0
  3  4  2  0
  4  5  1  0
  5  6  2  0
  6  1  1  0
  2  7  1  0
  7  8  1  0
  7  9  1  0
  7 10  1  0
  5 11  1  0
 11 12  2  0
 12 13  1  0
 13 14  2  0
 14 15  1  0
 15 11  1  0
 13 16  1  0
 14 17  1  0
 17 18  1  0
 18 19  1  0
 19 20  2  0
 20 21  1  0
 21 22  2  0
 22 23  1  0
 23 24  2  0
 24 19  1  0
 21 25  1  0
 25 26  1  0
 22 27  1  0
 27 28  1  0
 28 29  1  0
 29 30  2  0
 29 31  1  0
 31 32  1  0
 32 27  2  0
 16 33  1  0
M  END
>  <ID_NEW>
CPDPP3264

>  <pEC50>
6.62212168517133

$$$$

  SciTegic12180813022D

 35 38  0  0  0  0            999 V2000
   -0.3639    2.6917    0.0000 C   0  0
   -0.3651    2.0644    0.0000 C   0  0
    0.1789    1.7515    0.0000 C   0  0
    0.7203    2.0648    0.0000 C   0  0
    0.7175    2.6954    0.0000 C   0  0
    0.1771    3.0045    0.0000 C   0  0
    1.2574    3.0102    0.0000 C   0  0
    1.2500    3.6375    0.0000 N   0  0
    1.8500    3.8000    0.0000 O   0  0
    2.2917    3.3584    0.0000 C   0  0
    2.8917    3.5209    0.0000 O   0  0
    2.2875    2.7334    0.0000 N   0  0
    1.2625    1.7539    0.0000 F   0  0
   -0.9064    1.7519    0.0000 O   0  0
   -1.4476    2.0645    0.0000 C   0  0
   -1.9889    1.7520    0.0000 C   0  0
   -2.5602    2.0083    0.0000 S   0  0
   -2.9785    1.5439    0.0000 C   0  0
   -2.0547    1.1325    0.0000 C   0  0
   -1.5904    0.7141    0.0000 C   0  0
   -3.6000    1.6092    0.0000 C   0  0
   -3.8545    2.1783    0.0000 C   0  0
   -4.4755    2.2439    0.0000 C   0  0
   -4.8436    1.7379    0.0000 C   0  0
   -4.5863    1.1648    0.0000 C   0  0
   -3.9660    1.1020    0.0000 C   0  0
   -5.4652    1.8025    0.0000 C   0  0
   -5.7201    2.3731    0.0000 F   0  0
   -5.8320    1.2964    0.0000 F   0  0
   -5.2420    2.3863    0.0000 F   0  0
   -2.6708    1.0084    0.0000 N   0  0
   -1.7207    0.1028    0.0000 O   0  0
   -1.2564   -0.3157    0.0000 C   0  0
   -0.7208    0.0042    0.0000 O   0  0
   -1.3173   -0.9377    0.0000 C   0  0
  1  2  2  0
  2  3  1  0
  3  4  2  0
  4  5  1  0
  5  6  2  0
  6  1  1  0
  5  7  1  0
  7  8  2  0
  8  9  1  0
  9 10  1  0
 10 11  2  0
 10 12  1  0
 12  7  1  0
  4 13  1  0
  2 14  1  0
 14 15  1  0
 15 16  1  0
 16 17  1  0
 17 18  1  0
 19 16  2  0
 19 20  1  0
 18 21  1  0
 21 22  2  0
 22 23  1  0
 23 24  2  0
 24 25  1  0
 25 26  2  0
 26 21  1  0
 24 27  1  0
 27 28  1  0
 27 29  1  0
 27 30  1  0
 18 31  2  0
 31 19  1  0
 20 32  1  0
 32 33  1  0
 33 34  2  0
 33 35  1  0
M  END
>  <ID_NEW>
CPDPP3265

>  <pEC50>
6.5918142313157375

$$$$

  SciTegic12180813012D

 31 33  0  0  0  0            999 V2000
   -1.5471    2.6559    0.0000 C   0  0
   -0.8518    3.0999    0.0000 S   0  0
   -0.4064    2.4095    0.0000 O   0  0
   -1.2972    3.7981    0.0000 O   0  0
   -0.1589    3.5484    0.0000 N   0  0
   -4.3955    1.8112    0.0000 C   0  0
   -3.6780    1.4039    0.0000 C   0  0
   -2.9666    1.8216    0.0000 C   0  0
   -2.2525    1.4130    0.0000 C   0  0
   -1.5415    1.8301    0.0000 C   0  0
   -2.2696    3.0630    0.0000 C   0  0
   -2.9776    2.6436    0.0000 C   0  0
    0.5756    3.1728    0.0000 C   0  0
    0.7013    2.3580    0.0000 S   0  0
    1.5159    2.2278    0.0000 C   0  0
    1.8916    2.9623    0.0000 N   0  0
    1.3090    3.5465    0.0000 N   0  0
    1.8894    1.4921    0.0000 C   0  0
    1.4390    0.8009    0.0000 C   0  0
    2.7132    1.4477    0.0000 C   0  0
   -5.1009    0.5685    0.0000 C   0  0
   -5.8104    0.1517    0.0000 O   0  0
   -4.3799    0.1589    0.0000 C   0  0
   -5.1070    1.3935    0.0000 N   0  0
   -4.3762   -0.6678    0.0000 C   0  0
   -3.6560   -1.0773    0.0000 C   0  0
   -2.9398   -0.6576    0.0000 C   0  0
   -2.9483    0.1758    0.0000 C   0  0
   -3.6690    0.5816    0.0000 C   0  0
   -5.0884   -1.0842    0.0000 F   0  0
   -2.2220   -1.0642    0.0000 Cl  0  0
  9 10  1  0
 10  1  2  0
  1 11  1  0
 11 12  2  0
 12  8  1  0
  5 13  1  0
 13 14  1  0
 14 15  1  0
 15 16  2  0
 16 17  1  0
 17 13  2  0
 15 18  1  0
 18 19  1  0
 18 20  1  0
  1  2  1  0
  2  3  2  0
  2  4  2  0
  2  5  1  0
 23 21  1  0
 21 22  2  0
 21 24  1  0
 24  6  1  0
  6  7  1  0
  7  8  1  0
  8  9  2  0
 23 25  2  0
 25 26  1  0
 26 27  2  0
 27 28  1  0
 28 29  2  0
 29 23  1  0
 25 30  1  0
 27 31  1  0
M  END
>  <ID_NEW>
CPDPP3266

>  <pEC50>
6.587305534674808

$$$$

  -MTS-   10172316532D 0   0.00000     0.00000     0

 37 40  0  0  1  0  0  0  0  0999 V2000
    2.6350    2.3410    0.0000 C   0  0  0  0  0  0  0  0  0  0  0  0
    2.6380    1.7010    0.0000 S   0  0  0  0  0  0  0  0  0  0  0  0
    3.2470    2.5460    0.0000 N   0  0  0  0  0  0  0  0  0  0  0  0
    3.6220    2.0360    0.0000 N   0  0  0  0  0  0  0  0  0  0  0  0
    3.2550    1.5110    0.0000 C   0  0  0  0  0  0  0  0  0  0  0  0
    3.4690    0.9030    0.0000 C   0  0  0  0  0  0  0  0  0  0  0  0
    3.0510    0.4200    0.0000 C   0  0  0  0  0  0  0  0  0  0  0  0
    4.0930    0.7880    0.0000 C   0  0  0  0  0  0  0  0  0  0  0  0
    2.0710    2.6610    0.0000 N   0  0  0  0  0  0  0  0  0  0  0  0
    1.5180    2.3320    0.0000 S   0  0  0  0  0  0  0  0  0  0  0  0
    0.9560    2.0030    0.0000 C   0  0  0  0  0  0  0  0  0  0  0  0
    1.1880    2.8890    0.0000 O   0  0  0  0  0  0  0  0  0  0  0  0
    1.8430    1.7700    0.0000 O   0  0  0  0  0  0  0  0  0  0  0  0
    0.9560    1.3630    0.0000 C   0  0  0  0  0  0  0  0  0  0  0  0
    0.4010    2.3260    0.0000 C   0  0  0  0  0  0  0  0  0  0  0  0
    0.4020    1.0400    0.0000 C   0  0  0  0  0  0  0  0  0  0  0  0
   -0.1540    1.3630    0.0000 C   0  0  0  0  0  0  0  0  0  0  0  0
   -0.1520    2.0030    0.0000 C   0  0  0  0  0  0  0  0  0  0  0  0
   -0.7630    2.2030    0.0000 C   0  0  0  0  0  0  0  0  0  0  0  0
   -1.1360    1.6860    0.0000 C   0  0  2  0  0  0  0  0  0  0  0  0
   -0.7620    1.1670    0.0000 C   0  0  0  0  0  0  0  0  0  0  0  0
    1.5200    1.0400    0.0000 Cl  0  0  0  0  0  0  0  0  0  0  0  0
   -1.7780    1.6920    0.0000 N   0  0  0  0  0  0  0  0  0  0  0  0
   -2.3290    2.0230    0.0000 C   0  0  0  0  0  0  0  0  0  0  0  0
   -2.3240    2.6680    0.0000 O   0  0  0  0  0  0  0  0  0  0  0  0
   -4.0160    2.9860    0.0000 C   0  0  0  0  0  0  0  0  0  0  0  0
   -4.5730    2.6630    0.0000 C   0  0  0  0  0  0  0  0  0  0  0  0
   -4.5710    2.0210    0.0000 C   0  0  0  0  0  0  0  0  0  0  0  0
   -4.0060    1.6990    0.0000 C   0  0  0  0  0  0  0  0  0  0  0  0
   -3.4540    2.0280    0.0000 C   0  0  0  0  0  0  0  0  0  0  0  0
   -3.4600    2.6690    0.0000 C   0  0  0  0  0  0  0  0  0  0  0  0
   -5.1430    2.9800    0.0000 C   0  0  0  0  0  0  0  0  0  0  0  0
   -2.8960    1.7010    0.0000 N   0  0  0  0  0  0  0  0  0  0  0  0
   -5.7080    3.2980    0.0000 F   0  0  0  0  0  0  0  0  0  0  0  0
   -4.8250    3.5470    0.0000 F   0  0  0  0  0  0  0  0  0  0  0  0
   -5.4600    2.4180    0.0000 F   0  0  0  0  0  0  0  0  0  0  0  0
   -3.9950    1.0520    0.0000 Cl  0  0  0  0  0  0  0  0  0  0  0  0
 10  9  1  0  0  0  0
 14 11  2  0  0  0  0
 11 15  1  0  0  0  0
 15 18  2  0  0  0  0
 17 16  2  0  0  0  0
 16 14  1  0  0  0  0
 17 18  1  0  0  0  0
 18 19  1  0  0  0  0
 19 20  1  0  0  0  0
 20 21  1  0  0  0  0
 21 17  1  0  0  0  0
 20 23  1  6  0  0  0
 14 22  1  0  0  0  0
 10 13  2  0  0  0  0
 11 10  1  0  0  0  0
 10 12  2  0  0  0  0
  2  5  1  0  0  0  0
  4  3  1  0  0  0  0
  3  1  2  0  0  0  0
  4  5  2  0  0  0  0
  5  6  1  0  0  0  0
  6  7  1  0  0  0  0
  6  8  1  0  0  0  0
  9  1  1  0  0  0  0
  1  2  1  0  0  0  0
 23 24  1  0  0  0  0
 24 33  1  0  0  0  0
 24 25  2  0  0  0  0
 26 27  2  0  0  0  0
 27 28  1  0  0  0  0
 28 29  2  0  0  0  0
 29 30  1  0  0  0  0
 30 31  2  0  0  0  0
 31 26  1  0  0  0  0
 27 32  1  0  0  0  0
 30 33  1  0  0  0  0
 32 34  1  0  0  0  0
 32 35  1  0  0  0  0
 32 36  1  0  0  0  0
 29 37  1  0  0  0  0
M  END
>  <ID_NEW>
CPDPP3267

>  <pEC50>
6.580301522728376

$$$$

  SciTegic12180812532D

 39 43  0  0  0  0            999 V2000
    0.4258    0.1538    0.0000 C   0  0
    0.3290   -0.9112    0.0000 C   0  0
    1.1988   -1.5325    0.0000 C   0  0
    2.1747   -1.0876    0.0000 C   0  0
    2.2769   -0.0202    0.0000 C   0  0
    1.4031    0.6026    0.0000 C   0  0
    3.0458   -1.7051    0.0000 O   0  0
    4.0218   -1.2602    0.0000 C   0  0
    4.8956   -1.8830    0.0000 C   0  0
    5.8675   -1.4368    0.0000 C   0  0
    5.9697   -0.3692    0.0000 C   0  0
    5.0959    0.2535    0.0000 C   0  0
    4.1227   -0.1966    0.0000 C   0  0
    6.9416    0.0769    0.0000 C   0  0
    7.8747   -0.4489    0.0000 N   0  0
    8.6638    0.2751    0.0000 C   0  0
    8.2190    1.2511    0.0000 C   0  0
    7.1570    1.1266    0.0000 O   0  0
    8.7448    2.1841    0.0000 C   0  0
    9.9524    0.5264    0.0000 C   0  0
   12.5432   -0.6511    0.0000 N   0  0
   13.3667    0.0298    0.0000 N   0  0
   12.9682    1.0267    0.0000 C   0  0
   11.9007    0.9568    0.0000 S   0  0
   11.6408   -0.0806    0.0000 C   0  0
   10.6438   -0.4791    0.0000 N   0  0
   13.5428    1.9333    0.0000 C   0  0
   13.0435    2.8813    0.0000 C   0  0
   14.6125    1.8922    0.0000 C   0  0
    7.9428   -2.7762    0.0000 C   0  0
    9.0073   -2.6488    0.0000 C   0  0
    9.4275   -1.6660    0.0000 C   0  0
    8.7834   -0.8106    0.0000 C   0  0
    7.7232   -0.9338    0.0000 C   0  0
    7.2986   -1.9207    0.0000 C   0  0
    6.2341   -2.0480    0.0000 O   0  0
   10.4920   -1.5387    0.0000 S   0  0
   11.5606   -1.5977    0.0000 O   0  0
   10.5223   -2.6088    0.0000 O   0  0
 17 19  1  0
  4  5  1  0
 16 20  1  0
  9 10  1  0
  2  3  1  0
 10 11  2  0
  5  6  2  0
 11 12  1  0
  6  1  1  0
 12 13  2  0
 13  8  1  0
  1  2  2  0
 11 14  1  0
 14 15  2  0
  4  7  1  0
  3  4  2  0
  7  8  1  0
 15 16  1  0
 16 17  2  0
 17 18  1  0
 18 14  1  0
  8  9  2  0
 37 26  1  0
 21 22  1  0
 22 23  2  0
 23 24  1  0
 24 25  1  0
 25 21  2  0
 25 26  1  0
 23 27  1  0
 27 28  1  0
 27 29  1  0
 30 31  2  0
 31 32  1  0
 32 33  2  0
 33 34  1  0
 34 35  2  0
 35 30  1  0
 35 36  1  0
 32 37  1  0
 37 38  2  0
 37 39  2  0
 26 20  1  0
M  END
>  <ID_NEW>
CPDPP3268

>  <pEC50>
6.574268092490735

$$$$

  SciTegic12180812592D

 38 42  0  0  0  0            999 V2000
   -0.8003    3.4474    0.0000 C   0  0
   -3.7953    1.4361    0.0000 C   0  0
   -4.2120    1.3858    0.0000 C   0  0
   -3.5757    1.8000    0.0000 S   0  0
   -3.5241    1.1265    0.0000 N   0  0
   -4.3629    1.0079    0.0000 C   0  0
   -4.4484    1.7214    0.0000 C   0  0
   -3.1663    1.7057    0.0000 C   0  0
   -3.1395    1.2750    0.0000 C   0  0
   -4.7713    0.9558    0.0000 C   0  0
   -4.8679    1.6629    0.0000 C   0  0
   -2.8531    1.9757    0.0000 C   0  0
   -2.7914    1.0449    0.0000 C   0  0
   -5.0220    1.2914    0.0000 C   0  0
   -2.4604    1.8412    0.0000 O   0  0
   -5.4320    1.2334    0.0000 C   0  0
   -5.8333    1.2083    0.0000 F   0  0
   -5.3879    0.8331    0.0000 F   0  0
   -5.4643    1.6435    0.0000 F   0  0
   -2.8141    0.6266    0.0000 N   0  0
   -2.1450    2.1116    0.0000 C   0  0
   -1.7472    1.9694    0.0000 C   0  0
   -1.4322    2.2446    0.0000 C   0  0
   -1.5056    2.6549    0.0000 C   0  0
   -1.9043    2.7920    0.0000 C   0  0
   -2.2230    2.5243    0.0000 C   0  0
   -1.1869    2.9322    0.0000 C   0  0
   -0.7945    2.7909    0.0000 N   0  0
   -1.1852    3.3335    0.0000 N   0  0
   -0.5038    3.1599    0.0000 O   0  0
   -0.6257    3.8333    0.0000 O   0  0
   -1.9873    3.2118    0.0000 F   0  0
   -3.1671    0.3982    0.0000 C   0  0
   -2.4879    0.3586    0.0000 C   0  0
   -2.6427   -0.0296    0.0000 C   0  0
   -3.0600   -0.0061    0.0000 C   0  0
   -2.0732    0.3613    0.0000 C   0  0
   -1.8626   -0.0019    0.0000 O   0  0
 25 32  1  0
 20 33  1  0
 33 36  1  0
 35 34  1  0
 34 20  1  0
 35 36  1  0
 34 37  1  0
 37 38  1  0
  2  3  1  0
  2  4  1  0
  2  5  2  0
  3  6  1  0
  3  7  2  0
  4  8  1  0
  5  9  1  0
  6 10  2  0
  7 11  1  0
  8 12  1  0
  9 13  1  0
 10 14  1  0
 12 15  1  0
 14 16  1  0
 16 17  1  0
 16 18  1  0
 16 19  1  0
  8  9  2  0
 11 14  2  0
 13 20  1  0
 15 21  1  0
 21 22  2  0
 22 23  1  0
 23 24  2  0
 24 25  1  0
 25 26  2  0
 26 21  1  0
 24 27  1  0
 27 28  2  0
 27 29  1  0
 28 30  1  0
  1 30  1  0
  1 31  2  0
  1 29  1  0
M  END
>  <ID_NEW>
CPDPP3269

>  <pEC50>
6.558484373785448

$$$$

  -MTS-   10172316532D 0   0.00000     0.00000     0

 34 37  0  0  1  0  0  0  0  0999 V2000
   -4.1010    1.1460    0.0000 C   0  0  0  0  0  0  0  0  0  0  0  0
   -4.4510    0.5150    0.0000 C   0  0  0  0  0  0  0  0  0  0  0  0
   -3.0050    0.5530    0.0000 C   0  0  0  0  0  0  0  0  0  0  0  0
   -3.3840    1.1680    0.0000 N   0  0  0  0  0  0  0  0  0  0  0  0
   -3.3490   -0.0830    0.0000 C   0  0  0  0  0  0  0  0  0  0  0  0
   -4.0790   -0.1010    0.0000 C   0  0  0  0  0  0  0  0  0  0  0  0
   -2.2850    0.5730    0.0000 N   0  0  0  0  0  0  0  0  0  0  0  0
   -5.1750    0.5010    0.0000 C   0  0  0  0  0  0  0  0  0  0  0  0
   -5.8330    0.4870    0.0000 F   0  0  0  0  0  0  0  0  0  0  0  0
   -5.6660    1.0740    0.0000 F   0  0  0  0  0  0  0  0  0  0  0  0
   -5.6440   -0.0970    0.0000 F   0  0  0  0  0  0  0  0  0  0  0  0
   -2.9730   -0.6990    0.0000 Cl  0  0  0  0  0  0  0  0  0  0  0  0
    2.5660    2.8610    0.0000 N   0  0  0  0  0  0  0  0  0  0  0  0
    3.0040    2.1020    0.0000 C   0  0  0  0  0  0  0  0  0  0  0  0
    2.5630    1.3420    0.0000 N   0  0  0  0  0  0  0  0  0  0  0  0
    3.1540    0.6860    0.0000 N   0  0  0  0  0  0  0  0  0  0  0  0
    3.9510    1.0490    0.0000 C   0  0  0  0  0  0  0  0  0  0  0  0
    3.8630    1.9170    0.0000 S   0  0  0  0  0  0  0  0  0  0  0  0
    4.7280    0.6100    0.0000 C   0  0  0  0  0  0  0  0  0  0  0  0
    4.7400   -0.2710    0.0000 C   0  0  0  0  0  0  0  0  0  0  0  0
    5.4820    1.0510    0.0000 C   0  0  0  0  0  0  0  0  0  0  0  0
    1.6840    2.8600    0.0000 S   0  0  0  0  0  0  0  0  0  0  0  0
    1.6850    3.7390    0.0000 O   0  0  0  0  0  0  0  0  0  0  0  0
    1.6850    1.9840    0.0000 O   0  0  0  0  0  0  0  0  0  0  0  0
    0.8060    2.8610    0.0000 C   0  0  0  0  0  0  0  0  0  0  0  0
    0.3680    3.6230    0.0000 C   0  0  0  0  0  0  0  0  0  0  0  0
   -0.5160    3.6240    0.0000 C   0  0  0  0  0  0  0  0  0  0  0  0
    0.3670    2.1010    0.0000 C   0  0  0  0  0  0  0  0  0  0  0  0
   -0.5150    2.1030    0.0000 C   0  0  0  0  0  0  0  0  0  0  0  0
   -0.9530    2.8610    0.0000 C   0  0  0  0  0  0  0  0  0  0  0  0
   -1.8350    2.8590    0.0000 C   0  0  0  0  0  0  0  0  0  0  0  0
   -2.2770    2.1000    0.0000 C   0  0  0  0  0  0  0  0  0  0  0  0
   -1.8340    1.3380    0.0000 C   0  0  2  0  0  0  0  0  0  0  0  0
   -0.9540    1.3390    0.0000 C   0  0  0  0  0  0  0  0  0  0  0  0
  1  2  2  0  0  0  0
  2  6  1  0  0  0  0
 16 17  2  0  0  0  0
 17 18  1  0  0  0  0
 18 14  1  0  0  0  0
 17 19  1  0  0  0  0
 19 20  1  0  0  0  0
 19 21  1  0  0  0  0
 13 14  1  0  0  0  0
 14 15  2  0  0  0  0
 15 16  1  0  0  0  0
 22 23  2  0  0  0  0
 25 26  2  0  0  0  0
 26 27  1  0  0  0  0
 27 30  2  0  0  0  0
 29 28  2  0  0  0  0
 28 25  1  0  0  0  0
 29 30  1  0  0  0  0
 29 34  1  0  0  0  0
 30 31  1  0  0  0  0
 31 32  1  0  0  0  0
 32 33  1  0  0  0  0
 33 34  1  0  0  0  0
 33  7  1  6  0  0  0
 22 24  2  0  0  0  0
 22 25  1  0  0  0  0
 13 22  1  0  0  0  0
  5  3  1  0  0  0  0
  3  4  2  0  0  0  0
  4  1  1  0  0  0  0
  5  6  2  0  0  0  0
  3  7  1  0  0  0  0
  2  8  1  0  0  0  0
  8  9  1  0  0  0  0
  8 10  1  0  0  0  0
  8 11  1  0  0  0  0
  5 12  1  0  0  0  0
M  END
>  <ID_NEW>
CPDPP3270

>  <pEC50>
6.5552219429017144

$$$$

  SciTegic12180812332D

 28 31  0  0  0  0            999 V2000
    1.9260    0.3394    0.0000 C   0  0
    2.4110   -0.3254    0.0000 N   0  0
    3.1961   -0.0717    0.0000 O   0  0
    3.1974    0.7532    0.0000 C   0  0
    2.4133    1.0093    0.0000 N   0  0
    3.8656    1.2371    0.0000 O   0  0
    1.0958    0.3417    0.0000 C   0  0
   -0.5558    0.2639    0.0000 C   0  0
   -0.1141   -0.4305    0.0000 C   0  0
    0.7092   -0.3925    0.0000 C   0  0
    0.6390    1.0377    0.0000 C   0  0
   -0.1828    0.9962    0.0000 C   0  0
    1.0152    1.7719    0.0000 Cl  0  0
   -3.8833    0.5771    0.0000 C   0  0
   -3.0976    0.3105    0.0000 O   0  0
   -2.6005    0.9671    0.0000 C   0  0
   -3.0714    1.6427    0.0000 C   0  0
   -3.8676    1.4030    0.0000 N   0  0
   -2.8016    2.4208    0.0000 C   0  0
   -1.7771    0.9508    0.0000 C   0  0
   -4.5582    0.1031    0.0000 C   0  0
   -5.3353    0.3693    0.0000 C   0  0
   -5.8306   -0.2901    0.0000 C   0  0
   -5.3566   -0.9650    0.0000 C   0  0
   -4.5683   -0.7226    0.0000 C   0  0
   -3.0852    3.1991    0.0000 O   0  0
   -2.5561    3.8303    0.0000 C   0  0
   -1.3788    0.2283    0.0000 O   0  0
  7  1  1  0
  1  2  2  0
  2  3  1  0
  3  4  1  0
  4  5  1  0
  5  1  1  0
  4  6  2  0
  8  9  2  0
  9 10  1  0
 10  7  2  0
  7 11  1  0
 11 12  2  0
 12  8  1  0
 11 13  1  0
  8 28  1  0
 17 19  1  0
 16 20  1  0
 14 15  1  0
 15 16  1  0
 16 17  2  0
 17 18  1  0
 18 14  2  0
 14 21  1  0
 21 22  1  0
 22 23  1  0
 23 24  1  0
 24 25  1  0
 25 21  1  0
 19 26  1  0
 26 27  1  0
 20 28  1  0
M  END
>  <ID_NEW>
CPDPP3271

>  <pEC50>
6.553356369732411

$$$$

  SciTegic12180812472D

 33 35  0  0  0  0            999 V2000
    1.0982    4.4009    0.0000 C   0  0
   -0.3546    4.0275    0.0000 C   0  0
   -0.7577    2.5827    0.0000 C   0  0
    0.2920    1.5112    0.0000 C   0  0
    1.7448    1.8845    0.0000 C   0  0
    2.1479    3.3294    0.0000 C   0  0
   -1.4044    5.0990    0.0000 C   0  0
    2.7945    0.8130    0.0000 S   0  0
   -2.8572    4.7256    0.0000 C   0  0
   -3.9069    5.7971    0.0000 N   0  0
    3.6422   -0.4244    0.0000 O   0  0
    1.6356   -0.1393    0.0000 O   0  0
    4.1012    1.5497    0.0000 N   0  0
    5.3925    0.7864    0.0000 C   0  0
    5.5339   -0.7069    0.0000 N   0  0
    6.9979   -1.0338    0.0000 N   0  0
    7.7612    0.2574    0.0000 C   0  0
    6.7690    1.3824    0.0000 S   0  0
    9.2545    0.3989    0.0000 C   0  0
    9.8786    1.7629    0.0000 C   0  0
   10.1237   -0.8236    0.0000 C   0  0
   -7.0561    9.0116    0.0000 C   0  0
   -8.5088    8.6382    0.0000 C   0  0
   -6.0063    7.9401    0.0000 C   0  0
   -8.9119    7.1934    0.0000 C   0  0
   -6.4094    6.4953    0.0000 C   0  0
   -7.8622    6.1219    0.0000 C   0  0
   -5.3597    5.4238    0.0000 C   0  0
   -5.7627    3.9790    0.0000 O   0  0
   -9.5586    9.7097    0.0000 O   0  0
  -11.0114    9.3364    0.0000 C   0  0
   -8.2653    4.6771    0.0000 O   0  0
   -9.7181    4.3038    0.0000 C   0  0
  7  9  1  0
  9 10  1  0
  8 11  2  0
  8 12  2  0
  8 13  1  0
 13 14  1  0
 14 15  2  0
 15 16  1  0
 16 17  2  0
 17 18  1  0
 18 14  1  0
 17 19  1  0
 19 20  1  0
 19 21  1  0
  1  2  2  0
  2  3  1  0
  3  4  2  0
  4  5  1  0
  5  6  2  0
  6  1  1  0
  2  7  1  0
  5  8  1  0
 26 28  1  0
 22 23  1  0
 28 29  2  0
 22 24  2  0
 23 25  2  0
 23 30  1  0
 24 26  1  0
 30 31  1  0
 25 27  1  0
 27 32  1  0
 26 27  2  0
 32 33  1  0
 10 28  1  0
M  END
>  <ID_NEW>
CPDPP3272

>  <pEC50>
6.552966148056745

$$$$

  SciTegic12180813082D

 30 32  0  0  0  0            999 V2000
   -2.3221    2.8601    0.0000 C   0  0
   -1.7518    3.2249    0.0000 S   0  0
   -1.3856    2.6554    0.0000 O   0  0
   -2.1181    3.7981    0.0000 O   0  0
   -1.1798    3.5943    0.0000 N   0  0
   -4.6664    2.1654    0.0000 C   0  0
   -4.0780    1.8289    0.0000 C   0  0
   -3.4916    2.1716    0.0000 C   0  0
   -2.9025    1.8339    0.0000 C   0  0
   -2.3165    2.1801    0.0000 C   0  0
   -2.9155    3.1922    0.0000 C   0  0
   -3.4985    2.8478    0.0000 C   0  0
   -0.5744    3.2853    0.0000 C   0  0
   -0.4737    2.6122    0.0000 S   0  0
    0.1992    2.5070    0.0000 C   0  0
    0.5082    3.1123    0.0000 N   0  0
    0.0256    3.5924    0.0000 N   0  0
    0.5060    1.9005    0.0000 C   0  0
    0.1348    1.3301    0.0000 F   0  0
    1.1840    1.8644    0.0000 F   0  0
   -5.8269    0.1218    0.0000 C   0  0
   -5.2397   -0.2190    0.0000 C   0  0
   -5.2468    1.1394    0.0000 C   0  0
   -5.8313    0.7976    0.0000 N   0  0
   -4.6549    0.8048    0.0000 C   0  0
   -4.6543    0.1205    0.0000 C   0  0
   -5.2529    1.8185    0.0000 N   0  0
   -5.2399   -0.8981    0.0000 Cl  0  0
   -4.0678    1.1477    0.0000 Cl  0  0
    0.9603    1.3950    0.0000 F   0  0
 14 15  1  0
 15 16  2  0
 16 17  1  0
 17 13  2  0
 15 18  1  0
 18 19  1  0
 18 20  1  0
  1  2  1  0
  2  3  2  0
  2  4  2  0
  2  5  1  0
 21 22  2  0
 22 26  1  0
 25 23  1  0
 23 24  2  0
 24 21  1  0
 25 26  2  0
 23 27  1  0
 27  6  1  0
  6  7  1  0
  7  8  1  0
  8  9  2  0
 22 28  1  0
 25 29  1  0
 18 30  1  0
  9 10  1  0
 10  1  2  0
  1 11  1  0
 11 12  2  0
 12  8  1  0
  5 13  1  0
 13 14  1  0
M  END
>  <ID_NEW>
CPDPP3273

>  <pEC50>
6.5442671303894295

$$$$

  SciTegic12180812592D

 38 42  0  0  0  0            999 V2000
   -3.5996    1.8735    0.0000 C   0  0
   -4.0506    1.8147    0.0000 C   0  0
   -3.3569    2.2712    0.0000 S   0  0
   -3.3041    1.5341    0.0000 N   0  0
   -4.2243    1.3977    0.0000 C   0  0
   -4.3181    2.1803    0.0000 C   0  0
   -2.9107    2.1660    0.0000 C   0  0
   -2.8860    1.6933    0.0000 C   0  0
   -4.6725    1.3439    0.0000 C   0  0
   -4.7744    2.1186    0.0000 C   0  0
   -2.5705    2.4611    0.0000 C   0  0
   -2.5009    1.4409    0.0000 C   0  0
   -4.9434    1.7078    0.0000 C   0  0
   -2.1449    2.3096    0.0000 O   0  0
   -5.3881    1.6522    0.0000 C   0  0
   -5.8333    1.6156    0.0000 F   0  0
   -5.3460    1.2015    0.0000 F   0  0
   -5.4253    2.0963    0.0000 F   0  0
   -2.5323    0.9851    0.0000 N   0  0
   -2.9443    0.7788    0.0000 C   0  0
   -2.9732    0.3268    0.0000 C   0  0
   -2.5944    0.0707    0.0000 O   0  0
   -2.1535    0.7311    0.0000 C   0  0
   -1.7139    2.7959    0.0000 C   0  0
   -1.7151    2.3893    0.0000 C   0  0
   -1.3628    2.1890    0.0000 C   0  0
   -1.0088    2.3898    0.0000 C   0  0
   -1.0117    2.7995    0.0000 C   0  0
   -1.3646    3.0045    0.0000 C   0  0
   -0.6613    3.0064    0.0000 C   0  0
   -0.5477    3.3980    0.0000 N   0  0
   -0.6604    2.1909    0.0000 O   0  0
   -0.6591    1.7868    0.0000 C   0  0
   -2.1583    0.2750    0.0000 C   0  0
   -0.3049    2.8261    0.0000 N   0  0
   -0.1833    3.4875    0.0000 C   0  0
    0.0042    3.1750    0.0000 O   0  0
   -0.0574    3.8329    0.0000 O   0  0
 19 20  1  0
 19 23  1  0
 20 21  1  0
 21 22  1  0
  1  2  1  0
  1  3  1  0
  1  4  2  0
  2  5  1  0
  2  6  2  0
  3  7  1  0
  4  8  1  0
  5  9  2  0
  6 10  1  0
  7 11  1  0
  8 12  1  0
  9 13  1  0
 11 14  1  0
 13 15  1  0
 15 16  1  0
 15 17  1  0
 15 18  1  0
  7  8  2  0
 10 13  2  0
 12 19  1  0
 24 25  2  0
 25 26  1  0
 26 27  2  0
 27 28  1  0
 28 29  2  0
 29 24  1  0
 28 30  1  0
 30 31  1  0
 27 32  1  0
 32 33  1  0
 14 25  1  0
 23 34  1  0
 34 22  1  0
 30 35  2  0
 31 36  1  0
 36 37  1  0
 37 35  1  0
 36 38  2  0
M  END
>  <ID_NEW>
CPDPP3274

>  <pEC50>
6.5409281349934725

$$$$

  -MTS-   10172316532D 0   0.00000     0.00000     0

 36 39  0  0  1  0  0  0  0  0999 V2000
   -4.1060   -0.1920    0.0000 C   0  0  0  0  0  0  0  0  0  0  0  0
   -4.1070   -0.9270    0.0000 C   0  0  0  0  0  0  0  0  0  0  0  0
   -3.4750   -1.2990    0.0000 N   0  0  0  0  0  0  0  0  0  0  0  0
   -2.8420   -0.9270    0.0000 C   0  0  0  0  0  0  0  0  0  0  0  0
   -2.8450   -0.1880    0.0000 C   0  0  0  0  0  0  0  0  0  0  0  0
   -3.4770    0.1670    0.0000 C   0  0  0  0  0  0  0  0  0  0  0  0
   -4.7550   -1.2980    0.0000 C   0  0  0  0  0  0  0  0  0  0  0  0
   -5.3860   -0.9260    0.0000 F   0  0  0  0  0  0  0  0  0  0  0  0
   -4.7550   -2.0270    0.0000 F   0  0  0  0  0  0  0  0  0  0  0  0
   -4.9390   -0.5840    0.0000 F   0  0  0  0  0  0  0  0  0  0  0  0
   -2.2150    0.1730    0.0000 C   0  0  0  0  0  0  0  0  0  0  0  0
   -1.5320   -0.1200    0.0000 S   0  0  0  0  0  0  0  0  0  0  0  0
   -1.0440    0.4250    0.0000 C   0  0  0  0  0  0  0  0  0  0  0  0
   -1.4180    1.0630    0.0000 C   0  0  0  0  0  0  0  0  0  0  0  0
   -2.1330    0.9000    0.0000 N   0  0  0  0  0  0  0  0  0  0  0  0
   -1.1270    1.7380    0.0000 C   0  0  0  0  0  0  0  0  0  0  0  0
   -0.3150    0.3540    0.0000 C   0  0  1  0  0  0  0  0  0  0  0  0
   -0.0190   -0.3110    0.0000 O   0  0  0  0  0  0  0  0  0  0  0  0
    0.1090    0.9440    0.0000 C   0  0  0  0  0  0  0  0  0  0  0  0
    0.5460    1.5360    0.0000 F   0  0  0  0  0  0  0  0  0  0  0  0
   -0.1840    1.6130    0.0000 F   0  0  0  0  0  0  0  0  0  0  0  0
    0.7430    0.8380    0.0000 F   0  0  0  0  0  0  0  0  0  0  0  0
    1.3610    0.4630    0.0000 C   0  0  0  0  0  0  0  0  0  0  0  0
    1.3600   -0.3230    0.0000 C   0  0  0  0  0  0  0  0  0  0  0  0
    2.0330   -0.7110    0.0000 C   0  0  0  0  0  0  0  0  0  0  0  0
    2.7120   -0.3230    0.0000 C   0  0  0  0  0  0  0  0  0  0  0  0
    2.7090    0.4660    0.0000 C   0  0  0  0  0  0  0  0  0  0  0  0
    2.0310    0.8590    0.0000 C   0  0  0  0  0  0  0  0  0  0  0  0
    3.3930    0.8610    0.0000 C   0  0  0  0  0  0  0  0  0  0  0  0
    0.6720   -0.7110    0.0000 C   0  0  0  0  0  0  0  0  0  0  0  0
    2.0250    1.6410    0.0000 F   0  0  0  0  0  0  0  0  0  0  0  0
    4.1040    0.5530    0.0000 N   0  0  0  0  0  0  0  0  0  0  0  0
    4.6300    1.1360    0.0000 O   0  0  0  0  0  0  0  0  0  0  0  0
    4.2440    1.8160    0.0000 C   0  0  0  0  0  0  0  0  0  0  0  0
    3.4650    1.6500    0.0000 N   0  0  0  0  0  0  0  0  0  0  0  0
    4.4370    2.5670    0.0000 O   0  0  0  0  0  0  0  0  0  0  0  0
 14 16  1  0  0  0  0
 13 17  1  0  0  0  0
 17 18  1  0  0  0  0
 17 19  1  6  0  0  0
  1  2  2  0  0  0  0
 19 20  1  0  0  0  0
  2  7  1  0  0  0  0
 19 21  1  0  0  0  0
  3  4  2  0  0  0  0
 19 22  1  0  0  0  0
  7  8  1  0  0  0  0
  7  9  1  0  0  0  0
  4  5  1  0  0  0  0
  7 10  1  0  0  0  0
  2  3  1  0  0  0  0
  5 11  1  0  0  0  0
  5  6  2  0  0  0  0
  6  1  1  0  0  0  0
 11 12  1  0  0  0  0
 23 24  2  0  0  0  0
 24 25  1  0  0  0  0
 25 26  2  0  0  0  0
 26 27  1  0  0  0  0
 27 28  2  0  0  0  0
 28 23  1  0  0  0  0
 27 29  1  0  0  0  0
 24 30  1  0  0  0  0
 30 18  1  0  0  0  0
 28 31  1  0  0  0  0
 29 32  2  0  0  0  0
 12 13  1  0  0  0  0
 13 14  2  0  0  0  0
 14 15  1  0  0  0  0
 32 33  1  0  0  0  0
 33 34  1  0  0  0  0
 34 35  1  0  0  0  0
 35 29  1  0  0  0  0
 15 11  2  0  0  0  0
 34 36  2  0  0  0  0
M  END
>  <ID_NEW>
CPDPP3275

>  <pEC50>
6.536560770730568

$$$$

  SciTegic12180812562D

 33 36  0  0  0  0            999 V2000
    3.9026   -4.9935    0.0000 N   0  0
    3.6399   -4.2114    0.0000 C   0  0
    2.8148   -4.2177    0.0000 N   0  0
    2.5666   -5.0072    0.0000 C   0  0
    3.2398   -5.4826    0.0000 O   0  0
    4.0459   -3.4916    0.0000 C   0  0
    1.7625   -5.2166    0.0000 C   0  0
    1.1804   -4.6223    0.0000 C   0  0
    0.3731   -4.8312    0.0000 C   0  0
    0.1527   -5.6329    0.0000 C   0  0
    0.7440   -6.2257    0.0000 C   0  0
    1.5451   -6.0138    0.0000 C   0  0
   -0.6458   -5.8416    0.0000 O   0  0
   -0.6583   -6.6666    0.0000 C   0  0
    9.1917   -2.1666    0.0000 N   0  0
    5.4250   -3.6375    0.0000 O   0  0
    6.1375   -3.2208    0.0000 C   0  0
    7.5745   -3.2165    0.0000 C   0  0
    7.5704   -2.3861    0.0000 C   0  0
    6.8441   -1.9775    0.0000 C   0  0
    6.1309   -2.3959    0.0000 C   0  0
    8.3667   -2.1666    0.0000 S   0  0
    8.3625   -1.3416    0.0000 O   0  0
    8.3625   -2.9916    0.0000 O   0  0
    9.8251   -2.7044    0.0000 C   0  0
    9.7632   -3.5312    0.0000 N   0  0
   10.5307   -3.8443    0.0000 N   0  0
   11.0685   -3.2150    0.0000 C   0  0
   10.6307   -2.5090    0.0000 S   0  0
   11.8860   -3.3531    0.0000 C   0  0
   12.4206   -2.7171    0.0000 C   0  0
   12.3555   -4.0299    0.0000 C   0  0
    6.8459   -3.6333    0.0000 C   0  0
  2  3  1  0
  4  7  1  0
  3  4  2  0
  7  8  2  0
  4  5  1  0
  8  9  1  0
  5  1  1  0
  9 10  2  0
  1  2  2  0
 10 11  1  0
  2  6  1  0
 11 12  2  0
 12  7  1  0
 10 13  1  0
 13 14  1  0
 26 27  1  0
 27 28  2  0
 28 29  1  0
 29 25  1  0
 28 30  1  0
 19 20  1  0
 30 31  1  0
 30 32  1  0
 20 21  2  0
 21 17  1  0
 19 22  1  0
 22 23  2  0
 16 17  1  0
 22 24  2  0
 22 15  1  0
 15 25  1  0
 25 26  2  0
 33 18  1  0
 18 19  2  0
  6 16  1  0
 17 33  2  0
M  END
>  <ID_NEW>
CPDPP3276

>  <pEC50>
6.533724477245135

$$$$

  SciTegic12180813002D

 34 37  0  0  0  0            999 V2000
    2.7598   -5.1500    0.0000 C   0  0
    2.7610   -5.9773    0.0000 C   0  0
    3.4711   -6.3902    0.0000 C   0  0
    4.1954   -5.9769    0.0000 C   0  0
    4.1925   -5.1463    0.0000 C   0  0
    3.4729   -4.7372    0.0000 C   0  0
    2.0459   -6.3833    0.0000 S   0  0
    4.9042   -4.7292    0.0000 C   0  0
    5.6642   -5.0616    0.0000 N   0  0
    6.2121   -4.4449    0.0000 C   0  0
    5.7949   -3.7331    0.0000 C   0  0
    4.9892   -3.9101    0.0000 S   0  0
    5.7875   -2.9042    0.0000 C   0  0
    2.2584   -7.1792    0.0000 F   0  0
    1.4584   -6.9667    0.0000 F   0  0
    1.2209   -6.3792    0.0000 F   0  0
    1.3292   -5.9708    0.0000 F   0  0
    1.8292   -5.5833    0.0000 F   0  0
    7.0334   -4.4417    0.0000 C   0  0
    7.4417   -5.1542    0.0000 C   0  0
    8.2375   -4.9375    0.0000 O   0  0
    9.0625   -4.9375    0.0000 C   0  0
    9.4732   -5.6543    0.0000 C   0  0
   10.2974   -5.6546    0.0000 C   0  0
   10.7107   -4.9396    0.0000 C   0  0
   10.2938   -4.2228    0.0000 C   0  0
    9.4709   -4.2260    0.0000 C   0  0
   11.5334   -4.9375    0.0000 C   0  0
   12.0000   -4.2958    0.0000 N   0  0
   10.8792   -6.2375    0.0000 Cl  0  0
   11.9488   -5.6503    0.0000 N   0  0
   12.8125   -4.4827    0.0000 C   0  0
   13.5292   -4.0159    0.0000 O   0  0
   12.8458   -5.3208    0.0000 O   0  0
 11 12  1  0
 12  8  1  0
 11 13  1  0
  4  5  1  0
  5  6  2  0
  7 14  1  0
  6  1  1  0
  7 15  1  0
  7 16  1  0
  2  7  1  0
  7 17  1  0
  1  2  2  0
  7 18  1  0
  5  8  1  0
  8  9  2  0
  2  3  1  0
 10 19  1  0
 19 20  1  0
 20 21  1  0
 21 22  1  0
 22 23  2  0
 23 24  1  0
 24 25  2  0
 25 26  1  0
 26 27  2  0
 27 22  1  0
 25 28  1  0
 28 29  1  0
 24 30  1  0
 28 31  2  0
  3  4  2  0
 29 32  1  0
  9 10  1  0
 32 33  2  0
 10 11  2  0
 31 34  1  0
 32 34  1  0
M  END
>  <ID_NEW>
CPDPP3277

>  <pEC50>
6.52959081815768

$$$$

  SciTegic12180813042D

 40 44  0  0  0  0            999 V2000
    2.7153   -4.8423    0.0000 C   0  0
    0.2153   -5.3541    0.0000 C   0  0
    0.2141   -5.9565    0.0000 C   0  0
    0.7331   -6.2569    0.0000 C   0  0
    1.2537   -5.9560    0.0000 C   0  0
    1.2508   -5.3505    0.0000 C   0  0
    0.7313   -5.0539    0.0000 C   0  0
   -0.3060   -6.2557    0.0000 C   0  0
   -0.8251   -5.9549    0.0000 F   0  0
   -0.3068   -6.8557    0.0000 F   0  0
   -0.4604   -5.6759    0.0000 F   0  0
    1.7690   -5.0480    0.0000 C   0  0
    2.3159   -5.2901    0.0000 N   0  0
    2.4128   -4.3241    0.0000 C   0  0
    1.8265   -4.4518    0.0000 S   0  0
    3.3123   -4.9022    0.0000 C   0  0
    2.6542   -3.7748    0.0000 C   0  0
    3.2506   -3.7092    0.0000 O   0  0
    3.4919   -3.1599    0.0000 C   0  0
    4.0882   -3.0965    0.0000 C   0  0
    4.3296   -2.5478    0.0000 C   0  0
    3.9745   -2.0634    0.0000 C   0  0
    3.3752   -2.1313    0.0000 C   0  0
    3.1366   -2.6801    0.0000 C   0  0
    4.9261   -2.4825    0.0000 O   0  0
    5.2808   -2.9664    0.0000 C   0  0
    4.2151   -1.5138    0.0000 C   0  0
    4.8125   -1.5125    0.0000 N   0  0
    4.9667   -0.9292    0.0000 C   0  0
    5.5457   -0.7719    0.0000 O   0  0
    4.5410   -0.5064    0.0000 O   0  0
    3.9875   -0.8500    0.0000 N   0  0
    3.5589   -5.4492    0.0000 N   0  0
    3.2063   -5.9362    0.0000 C   0  0
    3.4505   -6.4814    0.0000 C   0  0
    4.0475   -6.5444    0.0000 C   0  0
    4.3994   -6.0576    0.0000 C   0  0
    4.1544   -5.5078    0.0000 C   0  0
    4.0417   -7.1417    0.0000 O   0  0
    4.6250   -6.6958    0.0000 O   0  0
  1 14  2  0
 27 32  2  0
 32 31  1  0
 14 15  1  0
 16 33  1  0
 33 34  1  0
 15 12  1  0
  7  2  1  0
  1 16  1  0
 14 17  1  0
 33 38  1  0
 34 35  1  0
 35 36  1  0
 36 37  1  0
 37 38  1  0
  3  8  1  0
 36 39  1  0
 17 18  1  0
 36 40  1  0
  3  4  1  0
 18 19  1  0
  8  9  1  0
 19 20  2  0
 20 21  1  0
  8 10  1  0
 21 22  2  0
  4  5  2  0
 22 23  1  0
  8 11  1  0
 23 24  2  0
 24 19  1  0
 21 25  1  0
  6 12  1  0
 25 26  1  0
 12 13  2  0
 22 27  1  0
  5  6  1  0
 27 28  1  0
  2  3  2  0
 28 29  1  0
  6  7  2  0
 29 30  2  0
 13  1  1  0
 29 31  1  0
M  END
>  <ID_NEW>
CPDPP3278

>  <pEC50>
6.521024744080598

$$$$

  -MTS-   10172316532D 0   0.00000     0.00000     0

 31 34  0  0  0  0  0  0  0  0999 V2000
   -2.9700    1.6620    0.0000 C   0  0  2  0  0  0  0  0  0  0  0  0
   -2.2570    2.0770    0.0000 C   0  0  0  0  0  0  0  0  0  0  0  0
   -3.6890    2.0770    0.0000 C   0  0  0  0  0  0  0  0  0  0  0  0
   -4.4000    1.6650    0.0000 C   0  0  0  0  0  0  0  0  0  0  0  0
   -4.4010    0.8400    0.0000 C   0  0  2  0  0  0  0  0  0  0  0  0
   -3.6850    0.4280    0.0000 C   0  0  0  0  0  0  0  0  0  0  0  0
   -2.9680    0.8410    0.0000 C   0  0  0  0  0  0  0  0  0  0  0  0
   -1.5020    1.7470    0.0000 O   0  0  0  0  0  0  0  0  0  0  0  0
   -0.9530    2.3620    0.0000 C   0  0  0  0  0  0  0  0  0  0  0  0
   -1.3680    3.0750    0.0000 C   0  0  0  0  0  0  0  0  0  0  0  0
   -2.1740    2.9000    0.0000 N   0  0  0  0  0  0  0  0  0  0  0  0
   -1.0350    3.8300    0.0000 C   0  0  0  0  0  0  0  0  0  0  0  0
   -0.1320    2.2790    0.0000 C   0  0  0  0  0  0  0  0  0  0  0  0
    0.2060    1.5270    0.0000 O   0  0  0  0  0  0  0  0  0  0  0  0
    1.0270    1.4430    0.0000 C   0  0  0  0  0  0  0  0  0  0  0  0
    1.3600    0.6900    0.0000 C   0  0  0  0  0  0  0  0  0  0  0  0
    2.1800    0.6070    0.0000 C   0  0  0  0  0  0  0  0  0  0  0  0
    2.6640    1.2760    0.0000 C   0  0  0  0  0  0  0  0  0  0  0  0
    2.3210    2.0320    0.0000 C   0  0  0  0  0  0  0  0  0  0  0  0
    1.5020    2.1110    0.0000 C   0  0  0  0  0  0  0  0  0  0  0  0
    2.8010    2.7020    0.0000 Cl  0  0  0  0  0  0  0  0  0  0  0  0
    3.4850    1.1940    0.0000 C   0  0  0  0  0  0  0  0  0  0  0  0
   -5.1150    0.4270    0.0000 C   0  0  0  0  0  0  0  0  0  0  0  0
   -5.8300    0.8400    0.0000 F   0  0  0  0  0  0  0  0  0  0  0  0
   -5.1150   -0.3980    0.0000 F   0  0  0  0  0  0  0  0  0  0  0  0
   -5.3290    1.2240    0.0000 F   0  0  0  0  0  0  0  0  0  0  0  0
    3.9010    0.4840    0.0000 N   0  0  0  0  0  0  0  0  0  0  0  0
    4.7080    0.6590    0.0000 O   0  0  0  0  0  0  0  0  0  0  0  0
    4.7900    1.4800    0.0000 C   0  0  0  0  0  0  0  0  0  0  0  0
    4.0340    1.8120    0.0000 N   0  0  0  0  0  0  0  0  0  0  0  0
    5.5020    1.8960    0.0000 O   0  0  0  0  0  0  0  0  0  0  0  0
  1  2  1  1  0  0  0
  1  3  1  0  0  0  0
  1  7  1  0  0  0  0
  8  9  1  0  0  0  0
  9 10  2  0  0  0  0
 10 11  1  0  0  0  0
 11  2  2  0  0  0  0
  3  4  1  0  0  0  0
 10 12  1  0  0  0  0
  4  5  1  0  0  0  0
  9 13  1  0  0  0  0
  5  6  1  0  0  0  0
  6  7  1  0  0  0  0
  2  8  1  0  0  0  0
 13 14  1  0  0  0  0
 14 15  1  0  0  0  0
 15 16  2  0  0  0  0
 16 17  1  0  0  0  0
 17 18  2  0  0  0  0
 18 19  1  0  0  0  0
 19 20  2  0  0  0  0
 20 15  1  0  0  0  0
 19 21  1  0  0  0  0
 18 22  1  0  0  0  0
  5 23  1  6  0  0  0
 23 24  1  0  0  0  0
 23 25  1  0  0  0  0
 23 26  1  0  0  0  0
 22 27  2  0  0  0  0
 27 28  1  0  0  0  0
 28 29  1  0  0  0  0
 29 30  1  0  0  0  0
 30 22  1  0  0  0  0
 29 31  2  0  0  0  0
V    1 M1
V    5 M1
M  END
>  <ID_NEW>
CPDPP3279

>  <pEC50>
6.488307027731583

$$$$

  SciTegic12180813022D

 32 35  0  0  0  0            999 V2000
   -0.3681    2.8542    0.0000 C   0  0
   -0.3693    2.2269    0.0000 C   0  0
    0.1747    1.9140    0.0000 C   0  0
    0.7162    2.2273    0.0000 C   0  0
    0.7133    2.8579    0.0000 C   0  0
    0.1729    3.1670    0.0000 C   0  0
    1.2532    3.1727    0.0000 C   0  0
    1.2458    3.8000    0.0000 N   0  0
    1.8708    3.8000    0.0000 O   0  0
    2.1792    3.2625    0.0000 C   0  0
    2.8042    3.2625    0.0000 O   0  0
    1.7333    2.8209    0.0000 N   0  0
    1.2583    1.9164    0.0000 F   0  0
   -0.9105    1.9144    0.0000 O   0  0
   -1.4518    2.2270    0.0000 C   0  0
   -1.9931    1.9145    0.0000 C   0  0
   -2.5644    2.1708    0.0000 S   0  0
   -2.9826    1.7064    0.0000 C   0  0
   -2.6702    1.1650    0.0000 N   0  0
   -2.0589    1.2950    0.0000 C   0  0
   -1.5946    0.8766    0.0000 C   0  0
   -1.7249    0.2653    0.0000 O   0  0
   -3.6042    1.7717    0.0000 C   0  0
   -3.8587    2.3408    0.0000 C   0  0
   -4.4796    2.4064    0.0000 C   0  0
   -4.8477    1.9004    0.0000 C   0  0
   -4.5904    1.3273    0.0000 C   0  0
   -3.9702    1.2645    0.0000 C   0  0
   -5.4640    1.9650    0.0000 C   0  0
   -5.7183    2.5359    0.0000 F   0  0
   -5.8312    1.4592    0.0000 F   0  0
   -5.2402    2.5486    0.0000 F   0  0
  1  2  2  0
  2  3  1  0
  3  4  2  0
  4  5  1  0
  5  6  2  0
  6  1  1  0
  5  7  1  0
  7  8  2  0
  8  9  1  0
  9 10  1  0
 10 11  2  0
 10 12  1  0
 12  7  1  0
  4 13  1  0
  2 14  1  0
 14 15  1  0
 15 16  1  0
 16 17  1  0
 17 18  1  0
 18 19  2  0
 19 20  1  0
 20 16  2  0
 20 21  1  0
 21 22  1  0
 18 23  1  0
 23 24  2  0
 24 25  1  0
 25 26  2  0
 26 27  1  0
 27 28  2  0
 28 23  1  0
 26 29  1  0
 29 30  1  0
 29 31  1  0
 29 32  1  0
M  END
>  <ID_NEW>
CPDPP3280

>  <pEC50>
6.486534792266145

$$$$

  SciTegic12180813082D

 41 44  0  0  0  0            999 V2000
   -1.6437    3.0581    0.0000 C   0  0
   -2.4965    3.0571    0.0000 C   0  0
   -2.9218    3.7961    0.0000 C   0  0
   -3.7739    3.7955    0.0000 C   0  0
   -4.2003    3.0559    0.0000 C   0  0
   -3.7684    2.3153    0.0000 C   0  0
   -2.9178    2.3196    0.0000 C   0  0
   -1.2181    3.7971    0.0000 O   0  0
   -2.4889    1.5849    0.0000 O   0  0
   -2.9107    0.8462    0.0000 C   0  0
   -3.7614    0.8421    0.0000 C   0  0
   -5.0546    3.0537    0.0000 C   0  0
   -5.8314    3.0517    0.0000 F   0  0
   -5.6200    3.7439    0.0000 F   0  0
   -5.6166    2.3607    0.0000 F   0  0
    4.0073    0.3419    0.0000 C   0  0
    4.0021   -0.4800    0.0000 S   0  0
    4.7867    0.5875    0.0000 N   0  0
    5.2670   -0.0824    0.0000 N   0  0
    4.7790   -0.7382    0.0000 C   0  0
    5.0313   -1.5315    0.0000 C   0  0
    5.2864   -2.3272    0.0000 F   0  0
    4.2381   -1.7858    0.0000 F   0  0
    5.8267   -1.2801    0.0000 F   0  0
    2.4804    1.5658    0.0000 C   0  0
    3.3021    1.5676    0.0000 S   0  0
    3.3021    0.7544    0.0000 N   0  0
    4.1189    1.5689    0.0000 O   0  0
    3.2998    2.3857    0.0000 O   0  0
    1.2468    0.8575    0.0000 C   0  0
    2.0668    0.8547    0.0000 C   0  0
    2.0757    2.2833    0.0000 C   0  0
    1.2470    2.2875    0.0000 C   0  0
    0.8366    1.5847    0.0000 C   0  0
   -0.3928    2.3123    0.0000 C   0  0
   -1.2164    2.3200    0.0000 N   0  0
    0.4101    0.8870    0.0000 C   0  0
    0.0091    1.5930    0.0000 C   0  0
   -0.7997    1.4288    0.0000 C   0  0
   -0.8916    0.6065    0.0000 C   0  0
   -0.1489    0.2783    0.0000 C   0  0
 36  1  1  0
  1  2  1  0
  2  3  2  0
 27 16  1  0
 16 17  1  0
 17 20  1  0
 19 18  1  0
 18 16  2  0
 19 20  2  0
 30 31  2  0
 31 25  1  0
 25 32  2  0
 32 33  1  0
 34 38  1  0
 38 35  1  0
 35 36  1  0
 37 38  1  0
 38 39  1  0
 39 40  1  0
 40 41  1  0
 41 37  1  0
 25 26  1  0
 26 27  1  0
 26 28  2  0
 26 29  2  0
 33 34  2  0
 34 30  1  0
 20 21  1  0
 21 22  1  0
 21 23  1  0
 21 24  1  0
  3  4  1  0
  4  5  2  0
  5  6  1  0
  6  7  2  0
  7  2  1  0
  1  8  2  0
  7  9  1  0
  9 10  1  0
 10 11  1  0
 12 13  1  0
 12 14  1  0
 12 15  1  0
  5 12  1  0
M  END
>  <ID_NEW>
CPDPP3281

>  <pEC50>
6.486183609439562

$$$$

  -MTS-   10172316532D 0   0.00000     0.00000     0

 38 42  0  0  0  0  0  0  0  0999 V2000
   -4.4040    1.6750    0.0000 C   0  0  0  0  0  0  0  0  0  0  0  0
   -4.4040    0.8500    0.0000 C   0  0  1  0  0  0  0  0  0  0  0  0
   -3.6920    0.4420    0.0000 C   0  0  0  0  0  0  0  0  0  0  0  0
   -2.9800    0.8500    0.0000 C   0  0  0  0  0  0  0  0  0  0  0  0
   -2.9800    1.6750    0.0000 C   0  0  2  0  0  0  0  0  0  0  0  0
   -3.6920    2.0920    0.0000 C   0  0  0  0  0  0  0  0  0  0  0  0
   -2.2640    2.0850    0.0000 C   0  0  0  0  0  0  0  0  0  0  0  0
   -5.1180    0.4360    0.0000 C   0  0  0  0  0  0  0  0  0  0  0  0
   -5.8330    0.8480    0.0000 F   0  0  0  0  0  0  0  0  0  0  0  0
   -5.1170   -0.3880    0.0000 F   0  0  0  0  0  0  0  0  0  0  0  0
   -5.3330    1.2330    0.0000 F   0  0  0  0  0  0  0  0  0  0  0  0
   -1.5130    1.7510    0.0000 S   0  0  0  0  0  0  0  0  0  0  0  0
   -0.9590    2.3620    0.0000 C   0  0  0  0  0  0  0  0  0  0  0  0
   -1.3700    3.0780    0.0000 C   0  0  0  0  0  0  0  0  0  0  0  0
   -2.1770    2.9090    0.0000 N   0  0  0  0  0  0  0  0  0  0  0  0
   -1.0320    3.8310    0.0000 C   0  0  0  0  0  0  0  0  0  0  0  0
   -0.1390    2.2740    0.0000 C   0  0  0  0  0  0  0  0  0  0  0  0
    0.1920    1.5180    0.0000 O   0  0  0  0  0  0  0  0  0  0  0  0
    0.3480    2.9400    0.0000 C   0  0  0  0  0  0  0  0  0  0  0  0
    1.1680    2.8510    0.0000 C   0  0  0  0  0  0  0  0  0  0  0  0
    1.4970    2.0970    0.0000 N   0  0  0  0  0  0  0  0  0  0  0  0
    2.3160    2.0080    0.0000 C   0  0  0  0  0  0  0  0  0  0  0  0
    2.8040    2.6740    0.0000 C   0  0  0  0  0  0  0  0  0  0  0  0
    2.4660    3.4320    0.0000 C   0  0  0  0  0  0  0  0  0  0  0  0
    1.6480    3.5170    0.0000 C   0  0  0  0  0  0  0  0  0  0  0  0
    0.6990    0.8660    0.0000 C   0  0  0  0  0  0  0  0  0  0  0  0
    0.3860    0.1020    0.0000 C   0  0  0  0  0  0  0  0  0  0  0  0
    0.8920   -0.5490    0.0000 C   0  0  0  0  0  0  0  0  0  0  0  0
    1.7100   -0.4360    0.0000 C   0  0  0  0  0  0  0  0  0  0  0  0
    2.0200    0.3330    0.0000 C   0  0  0  0  0  0  0  0  0  0  0  0
    1.5120    0.9810    0.0000 C   0  0  0  0  0  0  0  0  0  0  0  0
    2.2180   -1.0860    0.0000 C   0  0  0  0  0  0  0  0  0  0  0  0
    0.5810   -1.3130    0.0000 Cl  0  0  0  0  0  0  0  0  0  0  0  0
    1.9940   -1.8790    0.0000 N   0  0  0  0  0  0  0  0  0  0  0  0
    2.6770   -2.3410    0.0000 O   0  0  0  0  0  0  0  0  0  0  0  0
    3.3280   -1.8330    0.0000 C   0  0  0  0  0  0  0  0  0  0  0  0
    3.0460   -1.0580    0.0000 N   0  0  0  0  0  0  0  0  0  0  0  0
    4.1210   -2.0610    0.0000 O   0  0  0  0  0  0  0  0  0  0  0  0
  1  2  1  0  0  0  0
  1  6  1  0  0  0  0
  2  3  1  0  0  0  0
  3  4  1  0  0  0  0
  4  5  1  0  0  0  0
  5  6  1  0  0  0  0
  5  7  1  6  0  0  0
  2  8  1  1  0  0  0
  8  9  1  0  0  0  0
  8 10  1  0  0  0  0
  8 11  1  0  0  0  0
  7 12  1  0  0  0  0
 12 13  1  0  0  0  0
 13 14  2  0  0  0  0
 14 15  1  0  0  0  0
 15  7  2  0  0  0  0
 14 16  1  0  0  0  0
 13 17  1  0  0  0  0
 17 18  1  0  0  0  0
 17 19  1  0  0  0  0
 19 20  1  0  0  0  0
 20 21  2  0  0  0  0
 21 22  1  0  0  0  0
 22 23  2  0  0  0  0
 23 24  1  0  0  0  0
 24 25  2  0  0  0  0
 25 20  1  0  0  0  0
 18 26  1  0  0  0  0
 26 27  2  0  0  0  0
 27 28  1  0  0  0  0
 28 29  2  0  0  0  0
 29 30  1  0  0  0  0
 30 31  2  0  0  0  0
 31 26  1  0  0  0  0
 29 32  1  0  0  0  0
 28 33  1  0  0  0  0
 32 34  2  0  0  0  0
 34 35  1  0  0  0  0
 35 36  1  0  0  0  0
 36 37  1  0  0  0  0
 37 32  1  0  0  0  0
 36 38  2  0  0  0  0
V    2 M1
V    5 M1
M  END
>  <ID_NEW>
CPDPP3282

>  <pEC50>
6.48084903727776

$$$$

  -MTS-   10172316532D 0   0.00000     0.00000     0

 43 47  0  0  0  0  0  0  0  0999 V2000
   -4.7760    1.5160    0.0000 C   0  0  0  0  0  0  0  0  0  0  0  0
   -5.0000    1.0360    0.0000 C   0  0  1  0  0  0  0  0  0  0  0  0
   -4.6970    0.6020    0.0000 C   0  0  0  0  0  0  0  0  0  0  0  0
   -4.1680    0.6500    0.0000 C   0  0  0  0  0  0  0  0  0  0  0  0
   -3.9440    1.1290    0.0000 C   0  0  2  0  0  0  0  0  0  0  0  0
   -4.2490    1.5650    0.0000 C   0  0  0  0  0  0  0  0  0  0  0  0
   -5.5250    0.9900    0.0000 C   0  0  0  0  0  0  0  0  0  0  0  0
   -5.8310    1.4240    0.0000 F   0  0  0  0  0  0  0  0  0  0  0  0
   -5.7490    0.5070    0.0000 F   0  0  0  0  0  0  0  0  0  0  0  0
   -5.4350    1.5100    0.0000 F   0  0  0  0  0  0  0  0  0  0  0  0
   -3.4140    1.1790    0.0000 C   0  0  0  0  0  0  0  0  0  0  0  0
   -3.0660    0.7780    0.0000 N   0  0  0  0  0  0  0  0  0  0  0  0
   -2.5780    0.9860    0.0000 C   0  0  0  0  0  0  0  0  0  0  0  0
   -2.6230    1.5160    0.0000 C   0  0  0  0  0  0  0  0  0  0  0  0
   -3.1450    1.6350    0.0000 S   0  0  0  0  0  0  0  0  0  0  0  0
   -2.1240    0.7130    0.0000 C   0  0  0  0  0  0  0  0  0  0  0  0
   -2.2240    1.8650    0.0000 C   0  0  0  0  0  0  0  0  0  0  0  0
   -1.7210    1.6940    0.0000 O   0  0  0  0  0  0  0  0  0  0  0  0
   -2.1310    0.1840    0.0000 N   0  0  0  0  0  0  0  0  0  0  0  0
   -2.5980   -0.0720    0.0000 C   0  0  0  0  0  0  0  0  0  0  0  0
   -2.6120   -0.6010    0.0000 C   0  0  0  0  0  0  0  0  0  0  0  0
   -2.1560   -0.8790    0.0000 C   0  0  0  0  0  0  0  0  0  0  0  0
   -1.6890   -0.6210    0.0000 C   0  0  0  0  0  0  0  0  0  0  0  0
   -1.6770   -0.0890    0.0000 C   0  0  0  0  0  0  0  0  0  0  0  0
   -2.1670   -1.4080    0.0000 C   0  0  0  0  0  0  0  0  0  0  0  0
   -2.6300   -1.6640    0.0000 F   0  0  0  0  0  0  0  0  0  0  0  0
   -1.7150   -1.6810    0.0000 F   0  0  0  0  0  0  0  0  0  0  0  0
   -2.6760   -1.2590    0.0000 F   0  0  0  0  0  0  0  0  0  0  0  0
   -1.3220    2.0430    0.0000 C   0  0  0  0  0  0  0  0  0  0  0  0
   -0.8210    1.8690    0.0000 C   0  0  0  0  0  0  0  0  0  0  0  0
   -0.4180    2.2170    0.0000 C   0  0  0  0  0  0  0  0  0  0  0  0
   -0.5190    2.7380    0.0000 C   0  0  0  0  0  0  0  0  0  0  0  0
   -1.0280    2.9120    0.0000 C   0  0  0  0  0  0  0  0  0  0  0  0
   -1.4220    2.5620    0.0000 C   0  0  0  0  0  0  0  0  0  0  0  0
    0.0810    2.0450    0.0000 O   0  0  0  0  0  0  0  0  0  0  0  0
    0.1810    1.5250    0.0000 C   0  0  0  0  0  0  0  0  0  0  0  0
   -0.1210    3.0880    0.0000 C   0  0  0  0  0  0  0  0  0  0  0  0
    0.3830    2.9180    0.0000 N   0  0  0  0  0  0  0  0  0  0  0  0
   -0.2220    3.6120    0.0000 N   0  0  0  0  0  0  0  0  0  0  0  0
    0.7540    3.3000    0.0000 C   0  0  0  0  0  0  0  0  0  0  0  0
    0.5460    3.8000    0.0000 O   0  0  0  0  0  0  0  0  0  0  0  0
    1.4620    3.2850    0.0000 O   0  0  0  0  0  0  0  0  0  0  0  0
   -1.9210    2.7310    0.0000 F   0  0  0  0  0  0  0  0  0  0  0  0
 23 24  1  0  0  0  0
 22 25  1  0  0  0  0
 25 26  1  0  0  0  0
 25 27  1  0  0  0  0
 25 28  1  0  0  0  0
 18 29  1  0  0  0  0
 29 30  2  0  0  0  0
 30 31  1  0  0  0  0
 31 32  2  0  0  0  0
 32 33  1  0  0  0  0
 33 34  2  0  0  0  0
 34 29  1  0  0  0  0
 31 35  1  0  0  0  0
 35 36  1  0  0  0  0
 32 37  1  0  0  0  0
 37 38  1  0  0  0  0
 37 39  2  0  0  0  0
  1  2  1  0  0  0  0
  1  6  1  0  0  0  0
  2  3  1  0  0  0  0
  3  4  1  0  0  0  0
  4  5  1  0  0  0  0
  5  6  1  0  0  0  0
  2  7  1  1  0  0  0
  7  8  1  0  0  0  0
  7  9  1  0  0  0  0
  7 10  1  0  0  0  0
  5 11  1  6  0  0  0
 11 12  2  0  0  0  0
 12 13  1  0  0  0  0
 13 14  2  0  0  0  0
 14 15  1  0  0  0  0
 15 11  1  0  0  0  0
 13 16  1  0  0  0  0
 14 17  1  0  0  0  0
 17 18  1  0  0  0  0
 16 19  1  0  0  0  0
 19 20  1  0  0  0  0
 19 24  1  0  0  0  0
 20 21  1  0  0  0  0
 21 22  1  0  0  0  0
 22 23  1  0  0  0  0
 38 40  1  0  0  0  0
 39 41  1  0  0  0  0
 41 40  1  0  0  0  0
 40 42  2  0  0  0  0
 34 43  1  0  0  0  0
V    2 M1
V    5 M1
M  END
>  <ID_NEW>
CPDPP3283

>  <pEC50>
6.478957880516952

$$$$

  SciTegic12180813082D

 38 41  0  0  0  0            999 V2000
    4.4510    2.7916    0.0000 C   0  0
    5.2672    2.9085    0.0000 S   0  0
    4.3132    1.9747    0.0000 N   0  0
    5.0540    1.5929    0.0000 N   0  0
    5.6333    2.1718    0.0000 C   0  0
    6.4595    2.0395    0.0000 C   0  0
    6.9774    2.6785    0.0000 C   0  0
    6.7592    1.2663    0.0000 C   0  0
    3.0435    3.0260    0.0000 S   0  0
    2.7548    3.7974    0.0000 O   0  0
    3.8142    3.3141    0.0000 N   0  0
    3.3308    2.2543    0.0000 O   0  0
    2.2678    2.7382    0.0000 C   0  0
    1.3570    1.6352    0.0000 C   0  0
    2.1332    1.9217    0.0000 C   0  0
    1.6336    3.2629    0.0000 C   0  0
    0.8560    2.9715    0.0000 C   0  0
    0.7184    2.1622    0.0000 C   0  0
   -0.0568    1.8743    0.0000 C   0  0
   -0.6928    2.3947    0.0000 C   0  0
    0.4530    1.2264    0.0000 C   0  0
   -0.7083    1.3584    0.0000 C   0  0
   -0.1944    0.7146    0.0000 C   0  0
   -2.1075    2.6310    0.0000 C   0  0
   -2.8833    2.3431    0.0000 C   0  0
   -1.9700    3.4469    0.0000 O   0  0
   -3.6199    2.7235    0.0000 S   0  0
   -4.2014    2.1549    0.0000 C   0  0
   -3.8384    1.4134    0.0000 C   0  0
   -3.0209    1.5319    0.0000 C   0  0
   -2.4373    0.9297    0.0000 O   0  0
   -2.6663    0.1332    0.0000 C   0  0
   -2.0933   -0.4640    0.0000 C   0  0
   -5.0151    2.3054    0.0000 C   0  0
   -5.8324    2.4539    0.0000 F   0  0
   -4.8638    3.1194    0.0000 F   0  0
   -5.1659    1.4874    0.0000 F   0  0
   -1.4705    2.1057    0.0000 N   0  0
 17 18  2  0
 18 14  1  0
 19 22  1  0
 19 21  1  0
 18 19  1  0
 20 38  1  0
 19 20  1  0
  9 13  1  0
  9 12  2  0
  9 10  2  0
  9 11  1  0
  4  5  2  0
  5  6  1  0
  6  7  1  0
  6  8  1  0
 11  1  1  0
  1  2  1  0
 23 22  1  0
 21 23  1  0
  2  5  1  0
  4  3  1  0
  3  1  2  0
 14 15  2  0
 15 13  1  0
 13 16  2  0
 16 17  1  0
 38 24  1  0
 24 25  1  0
 24 26  2  0
 25 27  1  0
 27 28  1  0
 28 29  2  0
 29 30  1  0
 30 25  2  0
 30 31  1  0
 31 32  1  0
 32 33  1  0
 28 34  1  0
 34 35  1  0
 34 36  1  0
 34 37  1  0
M  END
>  <ID_NEW>
CPDPP3284

>  <pEC50>
6.475341702303875

$$$$

  SciTegic12180813002D

 36 38  0  0  0  0            999 V2000
    3.7569   -0.0291    0.0000 C   0  0
    3.7558   -0.8565    0.0000 C   0  0
    4.4706   -1.2694    0.0000 C   0  0
    5.1870   -0.8560    0.0000 C   0  0
    5.1842   -0.0255    0.0000 C   0  0
    4.4688    0.3836    0.0000 C   0  0
    3.0410   -1.2684    0.0000 C   0  0
    2.3209   -0.8542    0.0000 C   0  0
    1.6042   -1.2625    0.0000 N   0  0
    5.8971    0.3897    0.0000 S   0  0
    6.3042   -0.3208    0.0000 O   0  0
    5.4792    1.1083    0.0000 O   0  0
    8.0458   -0.2126    0.0000 N   0  0
    8.8708   -0.2126    0.0000 N   0  0
    9.1276    0.5716    0.0000 C   0  0
    8.4583    1.0583    0.0000 S   0  0
    7.7933    0.5716    0.0000 C   0  0
    7.0085    0.8262    0.0000 N   0  0
    9.9126    0.8254    0.0000 C   0  0
   10.5249    0.2725    0.0000 F   0  0
   10.0852    1.6321    0.0000 F   0  0
    0.8921   -0.8459    0.0000 C   0  0
    0.1753   -1.2543    0.0000 C   0  0
    0.8969   -0.0209    0.0000 O   0  0
   -0.5361   -0.8345    0.0000 C   0  0
   -1.2524   -1.2422    0.0000 C   0  0
   -1.2576   -2.0681    0.0000 C   0  0
   -0.5405   -2.4846    0.0000 C   0  0
    0.1729   -2.0745    0.0000 C   0  0
   -1.9739   -2.4774    0.0000 C   0  0
   -2.6866   -2.0617    0.0000 F   0  0
   -1.9776   -3.3024    0.0000 F   0  0
   -2.1839   -1.6796    0.0000 F   0  0
    0.8863   -2.4887    0.0000 O   0  0
    0.8843   -3.3137    0.0000 C   0  0
    1.5978   -3.7279    0.0000 C   0  0
  7  8  1  0
  8  9  1  0
  4  5  1  0
  2  3  1  0
  5  6  2  0
 19 21  1  0
 13 14  1  0
 14 15  2  0
  9 22  1  0
 15 16  1  0
 22 23  1  0
 16 17  1  0
 22 24  2  0
 17 13  2  0
 23 25  2  0
 17 18  1  0
 25 26  1  0
 15 19  1  0
 26 27  2  0
 19 20  1  0
 27 28  1  0
 10 18  1  0
 28 29  2  0
 29 23  1  0
  5 10  1  0
 27 30  1  0
  6  1  1  0
 30 31  1  0
 10 11  2  0
 30 32  1  0
  1  2  2  0
 30 33  1  0
 10 12  2  0
 29 34  1  0
  2  7  1  0
 34 35  1  0
  3  4  2  0
 35 36  1  0
M  END
>  <ID_NEW>
CPDPP3285

>  <pEC50>
6.471829710062658

$$$$

  SciTegic12180813062D

 35 37  0  0  0  0            999 V2000
   -4.3791    3.7892    0.0000 N   0  0
   -2.9418    3.7899    0.0000 C   0  0
   -2.2242    3.3716    0.0000 C   0  0
   -2.2214    2.5491    0.0000 C   0  0
   -1.5088    2.1349    0.0000 C   0  0
   -0.7923    2.5498    0.0000 C   0  0
   -0.7929    3.3750    0.0000 C   0  0
   -1.5103    3.7854    0.0000 C   0  0
   -0.0709    2.1290    0.0000 S   0  0
   -0.4928    1.4082    0.0000 N   0  0
    0.6481    1.7074    0.0000 O   0  0
    0.3486    2.8467    0.0000 O   0  0
   -0.0829    0.6865    0.0000 C   0  0
   -0.3340   -0.0960    0.0000 S   0  0
    0.3353   -0.5809    0.0000 C   0  0
    0.9987   -0.1001    0.0000 N   0  0
    0.7430    0.6802    0.0000 N   0  0
    0.3408   -1.4058    0.0000 C   0  0
   -0.3740   -1.8185    0.0000 C   0  0
    1.0570   -1.8179    0.0000 C   0  0
   -3.6615    3.3791    0.0000 C   0  0
   -5.8154    2.1421    0.0000 C   0  0
   -5.0968    2.5622    0.0000 C   0  0
   -5.8090    1.3253    0.0000 C   0  0
   -4.3855    2.1569    0.0000 C   0  0
   -5.0956    3.3788    0.0000 C   0  0
   -5.0798    0.9050    0.0000 C   0  0
   -4.3825    1.3210    0.0000 C   0  0
   -5.8118    3.7989    0.0000 O   0  0
   -5.0480    0.0865    0.0000 C   0  0
   -3.6729    2.5727    0.0000 F   0  0
   -3.6644    0.9149    0.0000 F   0  0
   -5.0168   -0.6593    0.0000 F   0  0
   -5.6878   -0.4807    0.0000 F   0  0
   -4.3618   -0.4292    0.0000 F   0  0
 26  1  1  0
  5  6  2  0
  6  7  1  0
  7  8  2  0
  8  3  1  0
  9 10  1  0
  9 11  2  0
  6  9  1  0
  9 12  2  0
 10 13  1  0
 13 14  1  0
 14 15  1  0
 15 16  2  0
 16 17  1  0
 17 13  2  0
 15 18  1  0
 18 19  1  0
 18 20  1  0
  2  3  1  0
  3  4  2  0
  4  5  1  0
  2 21  1  0
 21  1  1  0
 22 23  2  0
 22 24  1  0
 23 25  1  0
 23 26  1  0
 24 27  2  0
 25 28  2  0
 26 29  2  0
 27 30  1  0
 27 28  1  0
 25 31  1  0
 28 32  1  0
 30 33  1  0
 30 34  1  0
 30 35  1  0
M  END
>  <ID_NEW>
CPDPP3286

>  <pEC50>
6.470216378344112

$$$$

  SciTegic12180813022D

 39 43  0  0  0  0            999 V2000
   -4.7438   -0.7156    0.0000 C   0  0
   -4.7488   -1.3393    0.0000 C   0  0
   -4.2121   -1.6541    0.0000 C   0  0
   -3.6700   -1.3461    0.0000 C   0  0
   -3.6680   -0.7201    0.0000 C   0  0
   -4.2051   -0.4081    0.0000 C   0  0
   -5.2924   -1.6477    0.0000 C   0  0
   -5.8313   -1.3312    0.0000 F   0  0
   -5.2971   -2.2727    0.0000 F   0  0
   -5.4497   -1.0428    0.0000 F   0  0
   -3.1258   -0.4091    0.0000 C   0  0
   -2.5593   -0.6664    0.0000 N   0  0
   -2.1398   -0.2031    0.0000 C   0  0
   -2.4507    0.3391    0.0000 C   0  0
   -3.0624    0.2108    0.0000 S   0  0
   -1.5184   -0.2703    0.0000 C   0  0
   -1.2658   -0.8420    0.0000 N   0  0
   -2.1949    0.9093    0.0000 C   0  0
   -1.5731    0.9729    0.0000 O   0  0
   -1.1333    1.4208    0.0000 C   0  0
   -0.5252    1.2617    0.0000 C   0  0
   -0.0857    1.7090    0.0000 C   0  0
   -0.2535    2.3146    0.0000 C   0  0
   -0.8650    2.4704    0.0000 C   0  0
   -1.3020    2.0219    0.0000 C   0  0
    0.5194    1.5525    0.0000 O   0  0
    0.6864    0.9502    0.0000 C   0  0
    0.1838    2.7611    0.0000 C   0  0
    0.9350    2.9099    0.0000 N   0  0
    0.0208    3.3667    0.0000 N   0  0
    0.4625    3.8125    0.0000 O   0  0
    1.0000    3.5000    0.0000 C   0  0
    1.5422    3.8109    0.0000 O   0  0
   -1.6367   -1.3456    0.0000 C   0  0
   -1.3866   -1.9154    0.0000 C   0  0
   -0.7653   -1.9858    0.0000 C   0  0
   -0.3949   -1.4815    0.0000 C   0  0
   -0.6457   -0.9069    0.0000 C   0  0
   -0.5149   -2.5584    0.0000 O   0  0
  1  2  2  0
  2  3  1  0
  3  4  2  0
  4  5  1  0
  5  6  2  0
  6  1  1  0
  2  7  1  0
  7  8  1  0
  7  9  1  0
  7 10  1  0
  5 11  1  0
 11 12  2  0
 12 13  1  0
 13 14  2  0
 14 15  1  0
 15 11  1  0
 13 16  1  0
 16 17  1  0
 14 18  1  0
 18 19  1  0
 19 20  1  0
 20 21  2  0
 21 22  1  0
 22 23  2  0
 23 24  1  0
 24 25  2  0
 25 20  1  0
 22 26  1  0
 26 27  1  0
 23 28  1  0
 28 29  1  0
 28 30  2  0
 30 31  1  0
 31 32  1  0
 32 33  2  0
 32 29  1  0
 17 34  1  0
 17 38  1  0
 34 35  1  0
 35 36  1  0
 36 37  1  0
 37 38  1  0
 36 39  1  0
M  END
>  <ID_NEW>
CPDPP3287

>  <pEC50>
6.469635709274184

$$$$

  SciTegic12180813092D

 34 37  0  0  0  0            999 V2000
    2.6425   -3.0733    0.0000 C   0  0
    3.3634   -2.6694    0.0000 C   0  0
    1.9308   -2.6475    0.0000 C   0  0
    3.3767   -1.8431    0.0000 N   0  0
    4.0784   -3.0953    0.0000 N   0  0
    1.9431   -1.8192    0.0000 C   0  0
    2.6681   -1.4234    0.0000 C   0  0
    1.2287   -1.3833    0.0000 C   0  0
    0.5142   -0.9544    0.0000 F   0  0
    1.6564   -0.6733    0.0000 F   0  0
    0.7969   -2.0995    0.0000 F   0  0
    2.6360   -3.8986    0.0000 Cl  0  0
    9.7020   -4.1114    0.0000 N   0  0
   10.1139   -4.8218    0.0000 C   0  0
    9.8603   -5.6046    0.0000 S   0  0
   10.9427   -4.8231    0.0000 N   0  0
   11.1967   -5.6054    0.0000 N   0  0
   10.5320   -6.0884    0.0000 C   0  0
   10.5359   -6.9150    0.0000 C   0  0
    9.8230   -7.3272    0.0000 C   0  0
   11.2524   -7.3252    0.0000 C   0  0
    4.7994   -2.6882    0.0000 C   0  0
    5.5120   -3.1158    0.0000 C   0  0
    5.5911   -3.9356    0.0000 C   0  0
    6.2536   -2.7791    0.0000 C   0  0
    6.8097   -3.3993    0.0000 C   0  0
    6.3997   -4.1122    0.0000 C   0  0
    6.8106   -4.8278    0.0000 C   0  0
    7.6398   -4.8273    0.0000 C   0  0
    8.0519   -4.1094    0.0000 C   0  0
    7.6386   -3.3970    0.0000 C   0  0
    8.8754   -4.1085    0.0000 S   0  0
    8.9203   -3.2367    0.0000 O   0  0
    8.8786   -4.9348    0.0000 O   0  0
  8  9  1  0
  8 10  1  0
  8 11  1  0
  1 12  1  0
  1  2  2  0
  1  3  1  0
  2  4  1  0
  2  5  1  0
  3  6  2  0
  4  7  2  0
  6  8  1  0
  6  7  1  0
 13 14  1  0
 14 15  1  0
 24 27  1  0
 26 25  1  0
 25 23  1  0
 26 27  2  0
 27 28  1  0
 28 29  2  0
 29 30  1  0
 30 31  2  0
 31 26  1  0
 22  5  1  0
 22 23  1  0
 23 24  1  0
 30 32  1  0
 32 33  2  0
 32 13  1  0
 32 34  2  0
 15 18  1  0
 17 16  1  0
 16 14  2  0
 17 18  2  0
 18 19  1  0
 19 20  1  0
 19 21  1  0
M  END
>  <ID_NEW>
CPDPP3288

>  <pEC50>
6.4680938789317795

$$$$

  -MTS-   10172316532D 0   0.00000     0.00000     0

 36 39  0  0  1  0  0  0  0  0999 V2000
    1.5350    0.3300    0.0000 C   0  0  0  0  0  0  0  0  0  0  0  0
    1.5340   -0.5010    0.0000 C   0  0  0  0  0  0  0  0  0  0  0  0
    2.2490   -0.9100    0.0000 C   0  0  0  0  0  0  0  0  0  0  0  0
    2.9690   -0.5010    0.0000 C   0  0  0  0  0  0  0  0  0  0  0  0
    2.9620    0.3380    0.0000 C   0  0  0  0  0  0  0  0  0  0  0  0
    2.2470    0.7390    0.0000 C   0  0  0  0  0  0  0  0  0  0  0  0
    0.8190   -0.9130    0.0000 C   0  0  0  0  0  0  0  0  0  0  0  0
    3.6880   -0.9120    0.0000 F   0  0  0  0  0  0  0  0  0  0  0  0
    3.6790    0.7490    0.0000 C   0  0  0  0  0  0  0  0  0  0  0  0
    0.1030   -0.5070    0.0000 O   0  0  0  0  0  0  0  0  0  0  0  0
   -4.0890   -2.7830    0.0000 C   0  0  0  0  0  0  0  0  0  0  0  0
   -4.0900   -3.6060    0.0000 C   0  0  0  0  0  0  0  0  0  0  0  0
   -3.3750   -4.0280    0.0000 C   0  0  0  0  0  0  0  0  0  0  0  0
   -2.6590   -3.6060    0.0000 C   0  0  0  0  0  0  0  0  0  0  0  0
   -2.6620   -2.7800    0.0000 C   0  0  0  0  0  0  0  0  0  0  0  0
   -3.3770   -2.3700    0.0000 C   0  0  0  0  0  0  0  0  0  0  0  0
   -1.9450   -2.3680    0.0000 C   0  0  0  0  0  0  0  0  0  0  0  0
   -1.1890   -2.7010    0.0000 N   0  0  0  0  0  0  0  0  0  0  0  0
   -0.6300   -2.0770    0.0000 C   0  0  0  0  0  0  0  0  0  0  0  0
   -1.0470   -1.3630    0.0000 C   0  0  0  0  0  0  0  0  0  0  0  0
   -1.8620   -1.5410    0.0000 S   0  0  0  0  0  0  0  0  0  0  0  0
    0.1940   -2.1590    0.0000 C   0  0  0  0  0  0  0  0  0  0  0  0
   -0.7210   -0.6040    0.0000 C   0  0  2  0  0  0  0  0  0  0  0  0
   -4.8050   -4.0270    0.0000 C   0  0  0  0  0  0  0  0  0  0  0  0
   -4.8060   -4.8520    0.0000 F   0  0  0  0  0  0  0  0  0  0  0  0
   -5.5190   -3.6050    0.0000 F   0  0  0  0  0  0  0  0  0  0  0  0
   -4.0040   -4.2320    0.0000 F   0  0  0  0  0  0  0  0  0  0  0  0
   -1.2110    0.0590    0.0000 C   0  0  0  0  0  0  0  0  0  0  0  0
   -0.8820    0.8240    0.0000 F   0  0  0  0  0  0  0  0  0  0  0  0
   -2.0310   -0.0290    0.0000 F   0  0  0  0  0  0  0  0  0  0  0  0
   -1.7960    0.6460    0.0000 F   0  0  0  0  0  0  0  0  0  0  0  0
    4.4370    0.4130    0.0000 N   0  0  0  0  0  0  0  0  0  0  0  0
    4.9900    1.0280    0.0000 O   0  0  0  0  0  0  0  0  0  0  0  0
    4.5750    1.7500    0.0000 C   0  0  0  0  0  0  0  0  0  0  0  0
    3.7650    1.5710    0.0000 N   0  0  0  0  0  0  0  0  0  0  0  0
    4.9870    2.4670    0.0000 O   0  0  0  0  0  0  0  0  0  0  0  0
  2  7  1  0  0  0  0
  3  4  2  0  0  0  0
  4  8  1  0  0  0  0
  4  5  1  0  0  0  0
  5  9  1  0  0  0  0
  2  3  1  0  0  0  0
 19 20  2  0  0  0  0
 20 21  1  0  0  0  0
 21 17  1  0  0  0  0
 16 11  1  0  0  0  0
 20 23  1  0  0  0  0
 11 12  2  0  0  0  0
 19 22  1  0  0  0  0
 12 24  1  0  0  0  0
 24 25  1  0  0  0  0
 24 26  1  0  0  0  0
 24 27  1  0  0  0  0
 23 10  1  0  0  0  0
 13 14  2  0  0  0  0
 15 17  1  0  0  0  0
 18 19  1  0  0  0  0
 14 15  1  0  0  0  0
 23 28  1  6  0  0  0
 12 13  1  0  0  0  0
 28 29  1  0  0  0  0
 15 16  2  0  0  0  0
 28 30  1  0  0  0  0
 17 18  2  0  0  0  0
 28 31  1  0  0  0  0
  9 32  2  0  0  0  0
  7 10  1  0  0  0  0
  5  6  2  0  0  0  0
  6  1  1  0  0  0  0
 32 33  1  0  0  0  0
 33 34  1  0  0  0  0
 34 35  1  0  0  0  0
 35  9  1  0  0  0  0
  1  2  2  0  0  0  0
 34 36  2  0  0  0  0
M  END
>  <ID_NEW>
CPDPP3289

>  <pEC50>
6.462586294705461

$$$$

  SciTegic12180813042D

 30 33  0  0  0  0            999 V2000
    5.4295   -1.7544    0.0000 C   0  0
    5.1064   -2.6981    0.0000 C   0  0
    5.6743   -3.5204    0.0000 C   0  0
    6.6754   -3.5432    0.0000 C   0  0
    3.3036   -4.5543    0.0000 C   0  0
    4.1259   -3.9851    0.0000 C   0  0
    4.1486   -2.9854    0.0000 N   0  0
    5.0695   -4.3158    0.0000 O   0  0
    7.1555   -4.4204    0.0000 O   0  0
    8.1603   -4.4443    0.0000 C   0  0
    8.6345   -5.3265    0.0000 C   0  0
    9.6366   -5.3516    0.0000 C   0  0
   10.1607   -4.4947    0.0000 C   0  0
    9.6752   -3.6106    0.0000 C   0  0
    8.6746   -3.5897    0.0000 C   0  0
   10.1979   -2.7479    0.0000 Cl  0  0
    2.3994   -4.1267    0.0000 O   0  0
    1.4333   -4.3833    0.0000 C   0  0
    0.7225   -3.6740    0.0000 C   0  0
    0.9890   -2.7122    0.0000 C   0  0
    0.2854   -2.0033    0.0000 C   0  0
   -0.6795   -2.2596    0.0000 C   0  0
   -0.9449   -3.2314    0.0000 C   0  0
   -0.2349   -3.9361    0.0000 C   0  0
   11.6872   -3.6601    0.0000 N   0  0
   11.1682   -4.5163    0.0000 C   0  0
   11.8221   -5.2745    0.0000 N   0  0
   12.7453   -4.8869    0.0000 O   0  0
   12.6618   -3.8892    0.0000 C   0  0
   13.3625   -3.1792    0.0000 O   0  0
  2  7  1  0
  3  8  1  0
  2  3  2  0
  4  9  1  0
  9 10  1  0
 10 11  2  0
 11 12  1  0
 12 13  2  0
 13 14  1  0
 14 15  2  0
 15 10  1  0
 13 26  1  0
 14 16  1  0
  5 17  1  0
 17 18  1  0
 18 19  1  0
 19 20  2  0
 20 21  1  0
 21 22  2  0
 22 23  1  0
 23 24  2  0
 24 19  1  0
 25 26  1  0
  1  2  1  0
  3  4  1  0
  6  7  2  0
  6  8  1  0
 26 27  2  0
 27 28  1  0
 28 29  1  0
 29 25  1  0
  5  6  1  0
 29 30  2  0
M  END
>  <ID_NEW>
CPDPP3290

>  <pEC50>
6.448878904686391

$$$$

  SciTegic12180812592D

 40 45  0  0  0  0            999 V2000
   -2.9473    2.9833    0.0000 C   0  0
   -2.9485    2.6560    0.0000 C   0  0
   -2.6627    2.4931    0.0000 C   0  0
   -2.3797    2.6564    0.0000 C   0  0
   -2.3825    2.9870    0.0000 C   0  0
   -2.6645    3.1420    0.0000 C   0  0
   -2.1051    3.1486    0.0000 C   0  0
   -1.8205    2.9921    0.0000 N   0  0
   -2.1041    2.4945    0.0000 F   0  0
   -4.2420    2.2041    0.0000 C   0  0
   -4.5617    2.1610    0.0000 C   0  0
   -4.0736    2.4856    0.0000 S   0  0
   -4.0299    1.9589    0.0000 N   0  0
   -4.6855    1.8699    0.0000 C   0  0
   -4.7554    2.4199    0.0000 C   0  0
   -3.7538    2.4077    0.0000 C   0  0
   -3.7373    2.0713    0.0000 C   0  0
   -5.0024    1.8273    0.0000 C   0  0
   -5.0793    2.3740    0.0000 C   0  0
   -3.5137    2.6170    0.0000 C   0  0
   -3.4630    1.8935    0.0000 C   0  0
   -5.1985    2.0853    0.0000 C   0  0
   -3.2125    2.5154    0.0000 O   0  0
   -5.5108    2.0507    0.0000 C   0  0
   -5.8302    2.0163    0.0000 F   0  0
   -5.4856    1.7280    0.0000 F   0  0
   -5.5399    2.3585    0.0000 F   0  0
   -2.1080    3.4749    0.0000 N   0  0
   -1.7847    3.5281    0.0000 C   0  0
   -1.5792    3.2792    0.0000 O   0  0
   -1.6693    3.8315    0.0000 O   0  0
   -3.4831    1.5633    0.0000 N   0  0
   -3.7617    1.3882    0.0000 C   0  0
   -3.2331    1.3574    0.0000 C   0  0
   -3.3511    1.0537    0.0000 C   0  0
   -3.6757    1.0738    0.0000 C   0  0
   -3.8561    0.8012    0.0000 C   0  0
   -3.7124    0.5082    0.0000 C   0  0
   -3.3862    0.4899    0.0000 C   0  0
   -3.2075    0.7629    0.0000 C   0  0
 19 22  2  0
  2 23  1  0
  7 28  1  0
  5  7  1  0
 28 29  1  0
  2  3  1  0
  8 30  1  0
 29 30  1  0
  7  8  2  0
 29 31  2  0
 32 33  1  0
 33 36  1  0
 35 34  1  0
 34 32  1  0
 35 36  2  0
 36 37  1  0
 37 38  2  0
 38 39  1  0
 39 40  2  0
 40 35  1  0
 21 32  1  0
  4  9  1  0
  3  4  2  0
  4  5  1  0
  1  2  2  0
  5  6  2  0
  6  1  1  0
 10 11  1  0
 10 12  1  0
 10 13  2  0
 11 14  1  0
 11 15  2  0
 12 16  1  0
 13 17  1  0
 14 18  2  0
 15 19  1  0
 16 20  1  0
 17 21  1  0
 18 22  1  0
 20 23  1  0
 22 24  1  0
 24 25  1  0
 24 26  1  0
 24 27  1  0
 16 17  2  0
M  END
>  <ID_NEW>
CPDPP3291

>  <pEC50>
6.444524623094133

$$$$

  SciTegic04131809482D

 31 34  0  0  0  0            999 V2000
    3.6468    2.0519    0.0000 C   0  0
    4.1318    1.3871    0.0000 N   0  0
    4.9169    1.6408    0.0000 O   0  0
    4.9182    2.4657    0.0000 C   0  0
    4.1341    2.7218    0.0000 N   0  0
    5.5864    2.9496    0.0000 O   0  0
    2.8199    2.0572    0.0000 C   0  0
    1.1734    1.9764    0.0000 C   0  0
    1.6151    1.2820    0.0000 C   0  0
    2.4384    1.3200    0.0000 C   0  0
    2.3682    2.7502    0.0000 C   0  0
    1.5464    2.7087    0.0000 C   0  0
    2.7444    3.4844    0.0000 Cl  0  0
    0.3493    1.9371    0.0000 O   0  0
   -2.2660    1.0660    0.0000 C   0  0
   -1.5032    0.7360    0.0000 S   0  0
   -0.9536    1.3511    0.0000 C   0  0
   -1.3689    2.0638    0.0000 C   0  0
   -2.1832    1.8892    0.0000 N   0  0
   -1.0362    2.8187    0.0000 C   0  0
   -0.1330    1.2679    0.0000 C   0  0
   -2.9782    0.6477    0.0000 C   0  0
   -3.6988    1.0559    0.0000 C   0  0
   -4.4089    0.6411    0.0000 C   0  0
   -0.2436    3.0354    0.0000 O   0  0
   -0.0341    3.8333    0.0000 C   0  0
   -5.1253    1.0505    0.0000 C   0  0
   -5.8333    0.6392    0.0000 C   0  0
   -5.8333   -0.1836    0.0000 C   0  0
   -5.1192   -0.5934    0.0000 C   0  0
   -4.4049   -0.1803    0.0000 C   0  0
  7  1  1  0
  1  2  2  0
  2  3  1  0
  3  4  1  0
  4  5  1  0
  5  1  1  0
  4  6  2  0
 18 20  1  0
 17 21  1  0
 21 14  1  0
 15 16  1  0
 16 17  1  0
 17 18  2  0
 18 19  1  0
 19 15  2  0
 15 22  1  0
 22 23  2  0
 23 24  1  0
 20 25  1  0
 25 26  1  0
 24 27  1  0
 24 31  1  0
 27 28  1  0
 28 29  1  0
 29 30  1  0
 30 31  1  0
  8  9  2  0
  9 10  1  0
 10  7  2  0
  7 11  1  0
 11 12  2  0
 12  8  1  0
 11 13  1  0
  8 14  1  0
M  END
>  <ID_NEW>
CPDPP3292

>  <pEC50>
6.434464356510466

$$$$

  -MTS-   10172316532D 0   0.00000     0.00000     0

 36 39  0  0  1  0  0  0  0  0999 V2000
   -3.7220    0.9380    0.0000 C   0  0  0  0  0  0  0  0  0  0  0  0
   -3.7230    0.2100    0.0000 C   0  0  0  0  0  0  0  0  0  0  0  0
   -3.1000   -0.1610    0.0000 N   0  0  0  0  0  0  0  0  0  0  0  0
   -2.4630    0.2110    0.0000 C   0  0  0  0  0  0  0  0  0  0  0  0
   -2.4660    0.9410    0.0000 C   0  0  0  0  0  0  0  0  0  0  0  0
   -3.1020    1.3040    0.0000 C   0  0  0  0  0  0  0  0  0  0  0  0
   -1.8320    1.3110    0.0000 C   0  0  0  0  0  0  0  0  0  0  0  0
   -4.3590   -0.1600    0.0000 C   0  0  0  0  0  0  0  0  0  0  0  0
   -4.3600   -0.8890    0.0000 F   0  0  0  0  0  0  0  0  0  0  0  0
   -4.9860    0.2110    0.0000 F   0  0  0  0  0  0  0  0  0  0  0  0
   -3.6580   -0.3410    0.0000 F   0  0  0  0  0  0  0  0  0  0  0  0
   -1.1730    1.0140    0.0000 S   0  0  0  0  0  0  0  0  0  0  0  0
   -0.6860    1.5620    0.0000 C   0  0  0  0  0  0  0  0  0  0  0  0
   -1.0560    2.1880    0.0000 C   0  0  0  0  0  0  0  0  0  0  0  0
   -1.7620    2.0300    0.0000 N   0  0  0  0  0  0  0  0  0  0  0  0
   -0.7600    2.8590    0.0000 C   0  0  0  0  0  0  0  0  0  0  0  0
    0.0430    1.4870    0.0000 C   0  0  2  0  0  0  0  0  0  0  0  0
    0.3440    0.8220    0.0000 O   0  0  0  0  0  0  0  0  0  0  0  0
    0.4710    2.0730    0.0000 C   0  0  0  0  0  0  0  0  0  0  0  0
    1.1920    2.0070    0.0000 F   0  0  0  0  0  0  0  0  0  0  0  0
    0.1700    2.7510    0.0000 C   0  0  0  0  0  0  0  0  0  0  0  0
    0.5980    3.3370    0.0000 C   0  0  0  0  0  0  0  0  0  0  0  0
    0.9380    1.5090    0.0000 F   0  0  0  0  0  0  0  0  0  0  0  0
    1.6940    1.6120    0.0000 C   0  0  0  0  0  0  0  0  0  0  0  0
    1.6930    0.8230    0.0000 C   0  0  0  0  0  0  0  0  0  0  0  0
    2.3700    0.4260    0.0000 C   0  0  0  0  0  0  0  0  0  0  0  0
    3.0490    0.8230    0.0000 C   0  0  0  0  0  0  0  0  0  0  0  0
    3.0470    1.6120    0.0000 C   0  0  0  0  0  0  0  0  0  0  0  0
    2.3690    2.0000    0.0000 C   0  0  0  0  0  0  0  0  0  0  0  0
    1.0200    0.4270    0.0000 C   0  0  0  0  0  0  0  0  0  0  0  0
    3.7270    2.0050    0.0000 C   0  0  0  0  0  0  0  0  0  0  0  0
    4.4400    1.6840    0.0000 N   0  0  0  0  0  0  0  0  0  0  0  0
    4.9620    2.2800    0.0000 O   0  0  0  0  0  0  0  0  0  0  0  0
    4.5730    2.9530    0.0000 C   0  0  0  0  0  0  0  0  0  0  0  0
    3.8040    2.7860    0.0000 N   0  0  0  0  0  0  0  0  0  0  0  0
    4.8940    3.6750    0.0000 O   0  0  0  0  0  0  0  0  0  0  0  0
  8  9  1  0  0  0  0
  8 10  1  0  0  0  0
  8 11  1  0  0  0  0
  7 12  1  0  0  0  0
 12 13  1  0  0  0  0
 13 14  2  0  0  0  0
 14 15  1  0  0  0  0
 15  7  2  0  0  0  0
 14 16  1  0  0  0  0
 13 17  1  0  0  0  0
 17 18  1  0  0  0  0
 17 19  1  1  0  0  0
 19 20  1  0  0  0  0
 19 21  1  0  0  0  0
 21 22  1  0  0  0  0
 19 23  1  0  0  0  0
  3  4  2  0  0  0  0
  5  7  1  0  0  0  0
  4  5  1  0  0  0  0
  2  3  1  0  0  0  0
  5  6  2  0  0  0  0
  6  1  1  0  0  0  0
  1  2  2  0  0  0  0
  2  8  1  0  0  0  0
 25 26  1  0  0  0  0
 26 27  2  0  0  0  0
 27 28  1  0  0  0  0
 24 25  2  0  0  0  0
 28 29  2  0  0  0  0
 29 24  1  0  0  0  0
 30 18  1  0  0  0  0
 28 31  1  0  0  0  0
 25 30  1  0  0  0  0
 31 32  2  0  0  0  0
 32 33  1  0  0  0  0
 33 34  1  0  0  0  0
 34 35  1  0  0  0  0
 35 31  1  0  0  0  0
 34 36  2  0  0  0  0
M  END
>  <ID_NEW>
CPDPP3293

>  <pEC50>
6.432695671942758

$$$$

  SciTegic12180813072D

 35 37  0  0  0  0            999 V2000
    2.1852    3.2698    0.0000 C   0  0
    2.1926    2.6091    0.0000 S   0  0
    2.8053    3.4789    0.0000 N   0  0
    3.1888    2.9487    0.0000 N   0  0
    2.8172    2.4156    0.0000 C   0  0
    3.0274    1.7868    0.0000 C   0  0
    2.5929    1.2946    0.0000 C   0  0
    3.6681    1.6547    0.0000 C   0  0
    1.6089    3.5942    0.0000 N   0  0
    1.0346    3.2574    0.0000 S   0  0
    0.4641    2.9195    0.0000 C   0  0
    0.6966    3.8310    0.0000 O   0  0
    1.3719    2.6864    0.0000 O   0  0
    0.4648    2.2589    0.0000 C   0  0
   -0.1036    3.2468    0.0000 C   0  0
   -0.1023    1.9314    0.0000 C   0  0
   -0.6708    2.2591    0.0000 C   0  0
   -0.6688    2.9193    0.0000 C   0  0
   -1.8154    2.2529    0.0000 C   0  0
   -1.2450    1.9252    0.0000 C   0  0
   -2.3820    1.9216    0.0000 N   0  0
   -2.9503    2.2479    0.0000 C   0  0
   -3.5168    1.9177    0.0000 C   0  0
   -2.9572    2.9054    0.0000 O   0  0
   -4.1390    2.1244    0.0000 S   0  0
   -4.5226    1.5903    0.0000 C   0  0
   -4.1375    1.0599    0.0000 C   0  0
   -3.5205    1.2591    0.0000 C   0  0
   -2.9870    0.8699    0.0000 O   0  0
   -3.0576    0.2151    0.0000 C   0  0
   -5.1752    1.5859    0.0000 C   0  0
   -5.8296    1.5808    0.0000 F   0  0
   -5.1816    2.2385    0.0000 F   0  0
   -5.1725    0.9296    0.0000 F   0  0
   -2.5281   -0.1704    0.0000 C   0  0
 10  9  1  0
 14 11  2  0
 11 15  1  0
 15 18  2  0
 17 16  2  0
 16 14  1  0
 17 18  1  0
 19 20  1  0
 20 17  1  0
 19 21  1  0
 10 13  2  0
 11 10  1  0
 10 12  2  0
  2  5  1  0
  4  3  1  0
  3  1  2  0
  4  5  2  0
  5  6  1  0
  6  7  1  0
  6  8  1  0
  9  1  1  0
  1  2  1  0
 21 22  1  0
 22 23  1  0
 22 24  2  0
 23 25  1  0
 25 26  1  0
 26 27  2  0
 27 28  1  0
 28 23  2  0
 28 29  1  0
 29 30  1  0
 26 31  1  0
 31 32  1  0
 31 33  1  0
 31 34  1  0
 30 35  1  0
M  END
>  <ID_NEW>
CPDPP3294

>  <pEC50>
6.427162431554494

$$$$

  -MTS-   10172316532D 0   0.00000     0.00000     0

 33 36  0  0  1  0  0  0  0  0999 V2000
    8.6500   -2.8270    0.0000 C   0  0  0  0  0  0  0  0  0  0  0  0
    7.2180   -2.9300    0.0000 C   0  0  0  0  0  0  0  0  0  0  0  0
    6.4750   -2.5680    0.0000 C   0  0  0  0  0  0  0  0  0  0  0  0
    6.4180   -1.7380    0.0000 C   0  0  0  0  0  0  0  0  0  0  0  0
    7.1050   -1.2780    0.0000 C   0  0  0  0  0  0  0  0  0  0  0  0
    7.8480   -1.6400    0.0000 C   0  0  0  0  0  0  0  0  0  0  0  0
    7.9060   -2.4650    0.0000 C   0  0  0  0  0  0  0  0  0  0  0  0
    5.6750   -1.3760    0.0000 C   0  0  0  0  0  0  0  0  0  0  0  0
    2.7030   -5.1830    0.0000 C   0  0  0  0  0  0  0  0  0  0  0  0
    1.8870   -5.3280    0.0000 C   0  0  0  0  0  0  0  0  0  0  0  0
    1.3570   -4.6910    0.0000 C   0  0  0  0  0  0  0  0  0  0  0  0
    1.6370   -3.9170    0.0000 C   0  0  0  0  0  0  0  0  0  0  0  0
    2.4520   -3.7720    0.0000 C   0  0  0  0  0  0  0  0  0  0  0  0
    2.9830   -4.4080    0.0000 C   0  0  0  0  0  0  0  0  0  0  0  0
    2.7340   -2.9960    0.0000 C   0  0  0  0  0  0  0  0  0  0  0  0
    2.2700   -2.3120    0.0000 N   0  0  0  0  0  0  0  0  0  0  0  0
    2.7820   -1.6570    0.0000 C   0  0  0  0  0  0  0  0  0  0  0  0
    3.5590   -1.9420    0.0000 C   0  0  0  0  0  0  0  0  0  0  0  0
    3.5300   -2.7690    0.0000 S   0  0  0  0  0  0  0  0  0  0  0  0
    2.5510   -0.8620    0.0000 C   0  0  0  0  0  0  0  0  0  0  0  0
    4.2440   -1.4790    0.0000 C   0  0  2  0  0  0  0  0  0  0  0  0
    1.6070   -6.1020    0.0000 C   0  0  0  0  0  0  0  0  0  0  0  0
    0.7810   -6.0340    0.0000 F   0  0  0  0  0  0  0  0  0  0  0  0
    1.4610   -6.9190    0.0000 F   0  0  0  0  0  0  0  0  0  0  0  0
    2.4020   -6.3200    0.0000 F   0  0  0  0  0  0  0  0  0  0  0  0
    4.9870   -1.8410    0.0000 O   0  0  0  0  0  0  0  0  0  0  0  0
    4.1850   -0.6540    0.0000 C   0  0  0  0  0  0  0  0  0  0  0  0
    4.8730   -0.1900    0.0000 C   0  0  0  0  0  0  0  0  0  0  0  0
    8.7950   -3.6360    0.0000 N   0  0  0  0  0  0  0  0  0  0  0  0
    9.6130   -3.7500    0.0000 O   0  0  0  0  0  0  0  0  0  0  0  0
    9.9750   -3.0070    0.0000 C   0  0  0  0  0  0  0  0  0  0  0  0
    9.3800   -2.4340    0.0000 N   0  0  0  0  0  0  0  0  0  0  0  0
   10.7670   -2.7870    0.0000 O   0  0  0  0  0  0  0  0  0  0  0  0
  6  7  2  0  0  0  0
  7  2  1  0  0  0  0
  2  3  2  0  0  0  0
 11 12  2  0  0  0  0
 13 15  1  0  0  0  0
 16 17  1  0  0  0  0
 12 13  1  0  0  0  0
 10 11  1  0  0  0  0
 13 14  2  0  0  0  0
 15 16  2  0  0  0  0
 17 18  2  0  0  0  0
 18 19  1  0  0  0  0
 19 15  1  0  0  0  0
 14  9  1  0  0  0  0
 18 21  1  0  0  0  0
  9 10  2  0  0  0  0
 17 20  1  0  0  0  0
 10 22  1  0  0  0  0
 22 23  1  0  0  0  0
 22 24  1  0  0  0  0
 22 25  1  0  0  0  0
 21 26  1  0  0  0  0
 21 27  1  1  0  0  0
 28 27  1  0  0  0  0
  8 26  1  0  0  0  0
  1  7  1  0  0  0  0
  1 29  2  0  0  0  0
  4  5  2  0  0  0  0
  4  8  1  0  0  0  0
  5  6  1  0  0  0  0
 29 30  1  0  0  0  0
 30 31  1  0  0  0  0
 31 32  1  0  0  0  0
 32  1  1  0  0  0  0
  3  4  1  0  0  0  0
 31 33  2  0  0  0  0
M  END
>  <ID_NEW>
CPDPP3295

>  <pEC50>
6.424066078857109

$$$$

  SciTegic12180812332D

 34 37  0  0  0  0            999 V2000
    5.1305   -7.0940    0.0000 C   0  0
    4.4283   -6.6563    0.0000 C   0  0
    4.4573   -5.8313    0.0000 C   0  0
    5.1875   -5.4430    0.0000 C   0  0
    5.8902   -5.8857    0.0000 C   0  0
    5.8579   -6.7092    0.0000 C   0  0
    3.7001   -7.0440    0.0000 C   0  0
    3.6718   -7.8686    0.0000 F   0  0
    3.0002   -6.6072    0.0000 F   0  0
    2.9736   -7.4390    0.0000 F   0  0
    6.6212   -5.5034    0.0000 C   0  0
    6.7358   -4.6859    0.0000 S   0  0
    7.5487   -4.5458    0.0000 C   0  0
    7.9332   -5.2759    0.0000 C   0  0
    7.3576   -5.8669    0.0000 N   0  0
    8.7497   -5.3941    0.0000 C   0  0
    9.2603   -4.7461    0.0000 C   0  0
   10.0767   -4.8643    0.0000 C   0  0
   10.5873   -4.2162    0.0000 C   0  0
    7.9134   -3.8058    0.0000 C   0  0
    5.4404   -1.9373    0.0000 C   0  0
    5.4392   -2.7647    0.0000 C   0  0
    6.1540   -3.1776    0.0000 N   0  0
    6.1522   -1.5246    0.0000 C   0  0
    6.8676   -1.9337    0.0000 C   0  0
    6.8679   -2.7647    0.0000 C   0  0
    7.6583   -3.0213    0.0000 N   0  0
    8.1467   -2.3488    0.0000 C   0  0
    7.6579   -1.6767    0.0000 C   0  0
    4.7210   -1.5207    0.0000 O   0  0
    3.9208   -1.7292    0.0000 C   0  0
    3.3415   -1.1418    0.0000 C   0  0
    2.5432   -1.3498    0.0000 O   0  0
    3.5605   -0.3464    0.0000 O   0  0
 15 11  2  0
 14 16  1  0
 16 17  1  0
 17 18  1  0
 18 19  1  0
 13 20  1  0
 11 12  1  0
 12 13  1  0
  2  7  1  0
  5 11  1  0
  3  4  2  0
  7  8  1  0
  7  9  1  0
  4  5  1  0
  7 10  1  0
  2  3  1  0
  5  6  2  0
  6  1  1  0
 23 26  2  0
 21 22  2  0
 25 24  2  0
 26 27  1  0
 27 28  1  0
 28 29  2  0
 29 25  1  0
 21 30  1  0
 24 21  1  0
 25 26  1  0
 22 23  1  0
 27 20  1  0
 30 31  1  0
  1  2  2  0
 31 32  1  0
 13 14  2  0
 32 33  1  0
 14 15  1  0
 32 34  2  0
M  END
>  <ID_NEW>
CPDPP3296

>  <pEC50>
6.40846457841684

$$$$

  SciTegic12180813072D

 35 37  0  0  0  0            999 V2000
   -2.7875    3.0944    0.0000 C   0  0
   -3.4025    2.7410    0.0000 C   0  0
   -2.7907    3.7986    0.0000 O   0  0
   -4.0040    3.0904    0.0000 C   0  0
   -4.6060    2.7377    0.0000 C   0  0
   -4.6075    2.0410    0.0000 C   0  0
   -4.0010    1.6903    0.0000 C   0  0
   -3.4019    2.0412    0.0000 C   0  0
   -2.7899    1.6775    0.0000 O   0  0
   -2.7990    0.9692    0.0000 C   0  0
   -2.1994    0.6180    0.0000 C   0  0
   -5.2177    1.6825    0.0000 C   0  0
   -5.8319    1.3233    0.0000 F   0  0
   -5.5753    2.2925    0.0000 F   0  0
   -4.8610    1.0726    0.0000 F   0  0
   -1.3834    3.2107    0.0000 C   0  0
   -0.5825    2.7424    0.0000 C   0  0
   -0.5797    1.8240    0.0000 C   0  0
    0.2162    1.3598    0.0000 C   0  0
    1.0202    1.8247    0.0000 C   0  0
    1.0196    2.7458    0.0000 C   0  0
    0.2147    3.2062    0.0000 C   0  0
    1.8250    1.3539    0.0000 S   0  0
    1.3531    0.5456    0.0000 N   0  0
    2.6315    0.8823    0.0000 O   0  0
    2.2945    2.1550    0.0000 O   0  0
    1.8130   -0.2594    0.0000 C   0  0
    1.5327   -1.1377    0.0000 S   0  0
    2.2812   -1.6768    0.0000 C   0  0
    3.0237   -1.1418    0.0000 N   0  0
    2.7389   -0.2657    0.0000 N   0  0
    2.2867   -2.6017    0.0000 C   0  0
    1.4885   -3.0644    0.0000 C   0  0
    3.0862   -3.0638    0.0000 C   0  0
   -2.1906    2.7499    0.0000 N   0  0
 19 20  2  0
 20 21  1  0
 21 22  2  0
 22 17  1  0
 23 24  1  0
 23 25  2  0
 20 23  1  0
 23 26  2  0
 24 27  1  0
 27 28  1  0
 28 29  1  0
 29 30  2  0
 30 31  1  0
 31 27  2  0
 29 32  1  0
 32 33  1  0
 32 34  1  0
 16 17  1  0
 17 18  2  0
 18 19  1  0
 16 35  1  0
 35  1  1  0
  1  2  1  0
  1  3  2  0
  2  4  2  0
  4  5  1  0
  5  6  2  0
  6  7  1  0
  7  8  2  0
  8  2  1  0
  8  9  1  0
  9 10  1  0
 10 11  1  0
  6 12  1  0
 12 13  1  0
 12 14  1  0
 12 15  1  0
M  END
>  <ID_NEW>
CPDPP3297

>  <pEC50>
6.4021464633759395

$$$$

  SciTegic12180813072D

 39 42  0  0  0  0            999 V2000
   -1.6989    1.5378    0.0000 C   0  0
   -2.5255    1.5387    0.0000 C   0  0
   -2.9391    2.2541    0.0000 C   0  0
   -3.7691    2.2506    0.0000 C   0  0
   -4.1812    1.5382    0.0000 C   0  0
   -3.7689    0.8239    0.0000 C   0  0
   -2.9414    0.8225    0.0000 C   0  0
   -1.2835    0.8283    0.0000 O   0  0
   -2.5192    2.9738    0.0000 O   0  0
   -2.9334    3.6964    0.0000 C   0  0
   -3.7621    3.6994    0.0000 C   0  0
   -5.0045    1.5385    0.0000 C   0  0
   -5.8292    1.5417    0.0000 F   0  0
   -5.0075    2.3653    0.0000 F   0  0
   -5.0044    0.7162    0.0000 F   0  0
    2.2353    2.6556    0.0000 C   0  0
    2.9557    3.0768    0.0000 S   0  0
    2.5345    3.7963    0.0000 O   0  0
    3.6733    3.5027    0.0000 N   0  0
    3.3764    2.3559    0.0000 O   0  0
   -1.2858    2.2535    0.0000 N   0  0
    2.2359    1.8325    0.0000 C   0  0
    1.5175    3.0704    0.0000 C   0  0
    1.5189    1.4175    0.0000 C   0  0
    0.8046    1.8327    0.0000 C   0  0
    0.8066    2.6555    0.0000 C   0  0
    0.0210    2.9101    0.0000 C   0  0
   -0.4608    2.2473    0.0000 C   0  0
    0.0219    1.5779    0.0000 C   0  0
    2.9506    1.4236    0.0000 O   0  0
    2.9544    0.5982    0.0000 C   0  0
    4.3910    3.0893    0.0000 C   0  0
    5.1819    3.3531    0.0000 S   0  0
    5.6639    2.7000    0.0000 C   0  0
    5.1936    2.0218    0.0000 N   0  0
    4.4025    2.2696    0.0000 N   0  0
    6.4957    2.7182    0.0000 C   0  0
    6.8914    3.4459    0.0000 C   0  0
    6.9184    2.0092    0.0000 C   0  0
 21  1  1  0
 26 27  1  0
 27 28  1  0
 28 29  1  0
 29 25  1  0
 28 21  1  0
 22 30  1  0
 17 20  2  0
 16 17  1  0
 17 18  2  0
 17 19  1  0
 30 31  1  0
 22 16  2  0
 16 23  1  0
 23 26  2  0
 25 24  2  0
 24 22  1  0
 25 26  1  0
 19 32  1  0
 32 33  1  0
 33 34  1  0
 34 35  2  0
 35 36  1  0
 36 32  2  0
 34 37  1  0
 37 38  1  0
 37 39  1  0
  1  2  1  0
  2  3  2  0
  3  4  1  0
  4  5  2  0
  5  6  1  0
  6  7  2  0
  7  2  1  0
  1  8  2  0
  3  9  1  0
  9 10  1  0
 10 11  1  0
  5 12  1  0
 12 13  1  0
 12 14  1  0
 12 15  1  0
M  END
>  <ID_NEW>
CPDPP3298

>  <pEC50>
6.39556401848521

$$$$

  SciTegic12180813072D

 36 39  0  0  0  0            999 V2000
   -4.4014    1.4293    0.0000 C   0  0
   -4.4026    0.6019    0.0000 C   0  0
   -3.6878    0.1890    0.0000 C   0  0
   -2.9713    0.6024    0.0000 C   0  0
   -2.9742    1.4329    0.0000 C   0  0
   -3.6896    1.8420    0.0000 C   0  0
   -2.2613    1.8481    0.0000 C   0  0
   -5.1174    0.1900    0.0000 C   0  0
   -5.1181   -0.6350    0.0000 F   0  0
   -5.8315    0.6031    0.0000 F   0  0
   -4.3207   -0.0242    0.0000 F   0  0
   -1.5068    1.5178    0.0000 S   0  0
   -0.9571    2.1330    0.0000 C   0  0
   -1.3723    2.8460    0.0000 C   0  0
   -2.1786    2.6713    0.0000 N   0  0
   -1.0397    3.6009    0.0000 C   0  0
   -0.1363    2.0499    0.0000 C   0  0
    0.2021    1.2975    0.0000 N   0  0
    1.0229    1.2144    0.0000 C   0  0
    1.3613    0.4620    0.0000 C   0  0
    2.1821    0.3789    0.0000 O   0  0
    2.5206   -0.3735    0.0000 C   0  0
    3.3414   -0.4566    0.0000 C   0  0
    0.4948    2.0688    0.0000 C   0  0
    1.3091    2.2009    0.0000 C   0  0
    1.8266    1.5611    0.0000 C   0  0
    2.6403    1.6928    0.0000 C   0  0
    2.9338    2.4648    0.0000 C   0  0
    2.4074    3.1056    0.0000 C   0  0
    1.5956    2.9707    0.0000 C   0  0
    3.7479    2.5980    0.0000 C   0  0
    4.3340    2.0209    0.0000 N   0  0
    5.0671    2.3991    0.0000 O   0  0
    4.9339    3.2133    0.0000 C   0  0
    4.1185    3.3380    0.0000 N   0  0
    5.5143    3.7997    0.0000 O   0  0
  3  4  2  0
  5  7  1  0
  4  5  1  0
  2  3  1  0
  5  6  2  0
  6  1  1  0
  1  2  2  0
  2  8  1  0
  8  9  1  0
  8 10  1  0
  8 11  1  0
  7 12  1  0
 12 13  1  0
 13 14  2  0
 14 15  1  0
 15  7  2  0
 14 16  1  0
 13 17  1  0
 17 18  1  0
 18 19  1  0
 19 20  1  0
 20 21  1  0
 21 22  1  0
 22 23  1  0
 18 24  1  0
 24 25  1  0
 25 26  2  0
 26 27  1  0
 27 28  2  0
 28 29  1  0
 29 30  2  0
 30 25  1  0
 28 31  1  0
 31 32  2  0
 32 33  1  0
 33 34  1  0
 34 35  1  0
 35 31  1  0
 34 36  2  0
M  END
>  <ID_NEW>
CPDPP3299

>  <pEC50>
6.394724539595769

$$$$

  SciTegic12180812542D

 36 39  0  0  0  0            999 V2000
    1.2485    3.2109    0.0000 N   0  0
   -1.4307    2.1609    0.0000 O   0  0
   -0.9224    2.4567    0.0000 C   0  0
    0.0980    2.4652    0.0000 C   0  0
    0.0939    3.0539    0.0000 C   0  0
   -0.4199    3.3417    0.0000 C   0  0
   -0.9290    3.0441    0.0000 C   0  0
    0.6610    3.2109    0.0000 S   0  0
    0.6568    3.7984    0.0000 O   0  0
    0.6568    2.6234    0.0000 O   0  0
    1.6986    2.8315    0.0000 C   0  0
    1.6533    2.2422    0.0000 N   0  0
    2.2000    2.0207    0.0000 N   0  0
    2.5836    2.4667    0.0000 C   0  0
    2.2708    2.9685    0.0000 S   0  0
    3.1678    2.3661    0.0000 C   0  0
    3.5482    2.8146    0.0000 C   0  0
    3.5081    1.8768    0.0000 C   0  0
   -0.4098    2.1692    0.0000 C   0  0
   -4.8139    1.2417    0.0000 C   0  0
   -4.8151    0.6519    0.0000 C   0  0
   -4.3045    0.3599    0.0000 C   0  0
   -3.7963    0.6523    0.0000 C   0  0
   -3.7992    1.2454    0.0000 C   0  0
   -4.3063    1.5337    0.0000 C   0  0
   -5.3216    0.3566    0.0000 C   0  0
   -5.8315    0.6530    0.0000 F   0  0
   -5.3222   -0.2309    0.0000 F   0  0
   -5.4761    0.9287    0.0000 F   0  0
   -3.2905    1.5398    0.0000 C   0  0
   -2.7503    1.3012    0.0000 S   0  0
   -2.3589    1.7414    0.0000 C   0  0
   -2.6574    2.2502    0.0000 C   0  0
   -3.2346    2.1255    0.0000 N   0  0
   -2.4206    2.7927    0.0000 C   0  0
   -1.7756    1.6832    0.0000 C   0  0
 12 13  1  0
 13 14  2  0
 14 15  1  0
 15 11  1  0
 14 16  1  0
  5  6  1  0
 16 17  1  0
 16 18  1  0
  6  7  2  0
  7  3  1  0
  5  8  1  0
  8  9  2  0
  2  3  1  0
  8 10  2  0
  8  1  1  0
  1 11  1  0
 11 12  2  0
 19  4  1  0
  4  5  2  0
 20 21  2  0
 21 22  1  0
 22 23  2  0
 23 24  1  0
 24 25  2  0
 25 20  1  0
 21 26  1  0
 26 27  1  0
 26 28  1  0
 26 29  1  0
 24 30  1  0
 30 31  1  0
 31 32  1  0
 32 33  2  0
 33 34  1  0
 34 30  2  0
 33 35  1  0
 32 36  1  0
 36  2  1  0
 19  3  2  0
M  END
>  <ID_NEW>
CPDPP3300

>  <pEC50>
6.392626801891685

$$$$

  SciTegic12180813022D

 38 42  0  0  0  0            999 V2000
   -2.4056    2.8250    0.0000 C   0  0
   -2.4068    2.4352    0.0000 C   0  0
   -2.0669    2.2431    0.0000 C   0  0
   -1.7297    2.4356    0.0000 C   0  0
   -1.7325    2.8287    0.0000 C   0  0
   -2.0062    3.0128    0.0000 C   0  0
   -1.3426    3.0194    0.0000 C   0  0
   -0.9997    2.8338    0.0000 N   0  0
   -1.3999    2.2445    0.0000 F   0  0
   -3.9420    1.8958    0.0000 C   0  0
   -4.3242    1.8443    0.0000 C   0  0
   -3.7403    2.2314    0.0000 S   0  0
   -3.6924    1.6089    0.0000 N   0  0
   -4.4688    1.4991    0.0000 C   0  0
   -4.5512    2.1532    0.0000 C   0  0
   -3.3621    2.1410    0.0000 C   0  0
   -3.3415    1.7421    0.0000 C   0  0
   -4.8441    1.4481    0.0000 C   0  0
   -4.9376    2.0990    0.0000 C   0  0
   -3.0762    2.3878    0.0000 C   0  0
   -3.0172    1.5268    0.0000 C   0  0
   -5.0777    1.7561    0.0000 C   0  0
   -2.7208    2.2654    0.0000 O   0  0
   -5.4525    1.7132    0.0000 C   0  0
   -5.8302    1.6746    0.0000 F   0  0
   -5.4189    1.3322    0.0000 F   0  0
   -5.4857    2.0835    0.0000 F   0  0
   -1.3455    3.4082    0.0000 N   0  0
   -0.9597    3.4698    0.0000 C   0  0
   -0.7167    3.1750    0.0000 O   0  0
   -0.8235    3.8315    0.0000 O   0  0
   -3.0414    1.1383    0.0000 N   0  0
   -3.3912    0.9656    0.0000 C   0  0
   -3.4163    0.5788    0.0000 C   0  0
   -3.0929    0.3618    0.0000 N   0  0
   -2.7435    0.5344    0.0000 C   0  0
   -2.7174    0.9241    0.0000 C   0  0
   -3.1186   -0.0268    0.0000 C   0  0
  3  4  2  0
  4  5  1  0
  5  6  2  0
  6  1  1  0
  5  7  1  0
  7  8  2  0
  4  9  1  0
 10 11  1  0
 10 12  1  0
 10 13  2  0
 11 14  1  0
 11 15  2  0
 12 16  1  0
 13 17  1  0
 14 18  2  0
 15 19  1  0
 16 20  1  0
 17 21  1  0
 18 22  1  0
 20 23  1  0
 22 24  1  0
 24 25  1  0
 24 26  1  0
 24 27  1  0
 16 17  2  0
 19 22  2  0
  2 23  1  0
  7 28  1  0
 28 29  1  0
  8 30  1  0
 29 30  1  0
 29 31  2  0
 21 32  1  0
 32 33  1  0
 32 37  1  0
 33 34  1  0
 34 35  1  0
 35 36  1  0
 36 37  1  0
 35 38  1  0
  1  2  2  0
  2  3  1  0
M  END
>  <ID_NEW>
CPDPP3301

>  <pEC50>
6.389721506529056

$$$$

  SciTegic12180812472D

 35 37  0  0  0  0            999 V2000
    1.5758    1.2819    0.0000 C   0  0
    0.1230    0.9086    0.0000 C   0  0
   -0.2801   -0.5363    0.0000 C   0  0
    0.7696   -1.6078    0.0000 C   0  0
    2.2224   -1.2344    0.0000 C   0  0
    2.6255    0.2104    0.0000 C   0  0
   -0.9268    1.9800    0.0000 C   0  0
    3.2721   -2.3059    0.0000 S   0  0
   -2.3796    1.6067    0.0000 C   0  0
   -3.4293    2.6782    0.0000 N   0  0
    4.1198   -3.5434    0.0000 O   0  0
    2.1132   -3.2582    0.0000 O   0  0
    4.5788   -1.5693    0.0000 N   0  0
    5.8701   -2.3326    0.0000 C   0  0
    6.0115   -3.8259    0.0000 N   0  0
    7.4755   -4.1528    0.0000 N   0  0
    8.2388   -2.8615    0.0000 C   0  0
    7.2466   -1.7366    0.0000 S   0  0
    9.7321   -2.7200    0.0000 C   0  0
   10.3562   -1.3560    0.0000 C   0  0
   10.6013   -3.9425    0.0000 C   0  0
   -6.5784    5.8927    0.0000 C   0  0
   -8.0312    5.5193    0.0000 C   0  0
   -8.4343    4.0745    0.0000 C   0  0
   -7.3846    3.0030    0.0000 C   0  0
   -5.9318    3.3763    0.0000 C   0  0
   -5.5287    4.8212    0.0000 C   0  0
   -4.8821    2.3049    0.0000 C   0  0
   -5.2851    0.8600    0.0000 O   0  0
   -7.7877    1.5582    0.0000 O   0  0
   -9.2405    1.1848    0.0000 C   0  0
   -6.1754    7.3375    0.0000 C   0  0
   -4.6754    7.3221    0.0000 C   0  0
   -7.6498    7.6131    0.0000 C   0  0
   -6.0293    8.8304    0.0000 C   0  0
  8 11  2  0
  8 12  2  0
  8 13  1  0
 13 14  1  0
 14 15  2  0
 15 16  1  0
 16 17  2  0
 17 18  1  0
 18 14  1  0
 17 19  1  0
 19 20  1  0
 19 21  1  0
  1  2  2  0
  2  3  1  0
  3  4  2  0
  4  5  1  0
  5  6  2  0
  6  1  1  0
  2  7  1  0
  5  8  1  0
  7  9  1  0
  9 10  1  0
 24 25  2  0
 28 29  2  0
 25 26  1  0
 25 30  1  0
 23 24  1  0
 30 31  1  0
 26 27  2  0
 22 32  1  0
 27 22  1  0
 32 33  1  0
 22 23  2  0
 32 34  1  0
 26 28  1  0
 32 35  1  0
 10 28  1  0
M  END
>  <ID_NEW>
CPDPP3302

>  <pEC50>
6.3875332378500245

$$$$

  SciTegic12180813012D

 34 36  0  0  0  0            999 V2000
   -1.5471    2.6559    0.0000 C   0  0
   -0.8518    3.0999    0.0000 S   0  0
   -0.4064    2.4095    0.0000 O   0  0
   -1.2972    3.7981    0.0000 O   0  0
   -0.1589    3.5484    0.0000 N   0  0
   -4.3955    1.8112    0.0000 C   0  0
   -3.6780    1.4039    0.0000 C   0  0
   -2.9666    1.8216    0.0000 C   0  0
   -2.2525    1.4130    0.0000 C   0  0
   -1.5415    1.8301    0.0000 C   0  0
   -2.2696    3.0630    0.0000 C   0  0
   -2.9776    2.6436    0.0000 C   0  0
    0.5756    3.1728    0.0000 C   0  0
    0.7013    2.3580    0.0000 S   0  0
    1.5159    2.2278    0.0000 C   0  0
    1.8916    2.9623    0.0000 N   0  0
    1.3090    3.5465    0.0000 N   0  0
    1.8894    1.4921    0.0000 C   0  0
    1.4390    0.8009    0.0000 C   0  0
    2.7132    1.4477    0.0000 C   0  0
   -5.1009    0.5685    0.0000 C   0  0
   -5.8104    0.1517    0.0000 O   0  0
   -4.3799    0.1589    0.0000 C   0  0
   -5.1070    1.3935    0.0000 N   0  0
   -4.3762   -0.6678    0.0000 C   0  0
   -3.6560   -1.0773    0.0000 C   0  0
   -2.9398   -0.6576    0.0000 C   0  0
   -2.9483    0.1758    0.0000 C   0  0
   -3.6690    0.5816    0.0000 C   0  0
   -5.0884   -1.0842    0.0000 F   0  0
   -2.2220   -1.0642    0.0000 C   0  0
   -1.5656   -1.4322    0.0000 F   0  0
   -2.0742   -1.9122    0.0000 F   0  0
   -1.4155   -0.7493    0.0000 F   0  0
  9 10  1  0
 10  1  2  0
  1 11  1  0
 11 12  2  0
 12  8  1  0
  5 13  1  0
 13 14  1  0
 14 15  1  0
 15 16  2  0
 16 17  1  0
 17 13  2  0
 15 18  1  0
 18 19  1  0
 18 20  1  0
  1  2  1  0
  2  3  2  0
  2  4  2  0
  2  5  1  0
 23 21  1  0
 21 22  2  0
 21 24  1  0
 24  6  1  0
  6  7  1  0
  7  8  1  0
  8  9  2  0
 23 25  2  0
 25 26  1  0
 26 27  2  0
 27 28  1  0
 28 29  2  0
 29 23  1  0
 25 30  1  0
 27 31  1  0
 31 32  1  0
 31 33  1  0
 31 34  1  0
M  END
>  <ID_NEW>
CPDPP3303

>  <pEC50>
6.372293509672601

$$$$

  SciTegic12180812472D

 32 34  0  0  0  0            999 V2000
   -0.5127    3.7673    0.0000 C   0  0
   -1.9655    3.3940    0.0000 C   0  0
   -2.3686    1.9491    0.0000 C   0  0
   -1.3189    0.8777    0.0000 C   0  0
    0.1339    1.2510    0.0000 C   0  0
    0.5370    2.6958    0.0000 C   0  0
   -3.0153    4.4655    0.0000 C   0  0
    1.1836    0.1795    0.0000 S   0  0
   -4.4681    4.0921    0.0000 C   0  0
   -5.5178    5.1636    0.0000 N   0  0
    2.0314   -1.0580    0.0000 O   0  0
    0.0247   -0.7728    0.0000 O   0  0
    2.4903    0.9161    0.0000 N   0  0
    3.7816    0.1529    0.0000 C   0  0
    3.9231   -1.3405    0.0000 N   0  0
    5.3870   -1.6674    0.0000 N   0  0
    6.1503   -0.3761    0.0000 C   0  0
    5.1581    0.7489    0.0000 S   0  0
    7.6436   -0.2346    0.0000 C   0  0
    8.2677    1.1294    0.0000 C   0  0
    8.5128   -1.4571    0.0000 C   0  0
   -9.4731    5.4884    0.0000 C   0  0
   -8.0203    5.8617    0.0000 C   0  0
  -10.5228    6.5599    0.0000 C   0  0
   -9.8762    4.0436    0.0000 O   0  0
   -7.6172    7.3066    0.0000 C   0  0
   -6.9706    4.7903    0.0000 C   0  0
  -10.1197    8.0047    0.0000 C   0  0
  -11.3290    3.6702    0.0000 C   0  0
   -8.6669    8.3781    0.0000 C   0  0
   -7.3736    3.3454    0.0000 O   0  0
  -11.1695    9.0762    0.0000 Cl  0  0
  5  8  1  0
  7  9  1  0
  9 10  1  0
  8 11  2  0
  8 12  2  0
  8 13  1  0
 13 14  1  0
 14 15  2  0
 15 16  1  0
 16 17  2  0
 17 18  1  0
 18 14  1  0
 17 19  1  0
 19 20  1  0
 19 21  1  0
  1  2  2  0
  2  3  1  0
  3  4  2  0
  4  5  1  0
  5  6  2  0
  6  1  1  0
  2  7  1  0
 22 23  2  0
 22 24  1  0
 22 25  1  0
 23 26  1  0
 23 27  1  0
 24 28  2  0
 25 29  1  0
 26 30  2  0
 27 31  2  0
 28 32  1  0
 28 30  1  0
 10 27  1  0
M  END
>  <ID_NEW>
CPDPP3304

>  <pEC50>
6.355328669517787

$$$$

  SciTegic12180813092D

 38 41  0  0  0  0            999 V2000
   -2.2333    2.9694    0.0000 C   0  0
   -2.9483    2.5618    0.0000 C   0  0
   -2.2199    3.7986    0.0000 O   0  0
   -3.6623    2.9737    0.0000 C   0  0
   -4.3768    2.5585    0.0000 C   0  0
   -4.3825    1.7368    0.0000 C   0  0
   -3.6635    1.3236    0.0000 C   0  0
   -2.9519    1.7370    0.0000 C   0  0
   -2.2316    1.3108    0.0000 O   0  0
   -2.2407    0.4775    0.0000 C   0  0
   -1.5286    0.0638    0.0000 C   0  0
   -5.1052    1.3200    0.0000 C   0  0
   -5.8319    0.9025    0.0000 F   0  0
   -5.5212    2.0426    0.0000 F   0  0
   -4.6902    0.5934    0.0000 F   0  0
    4.1049    1.5264    0.0000 N   0  0
    4.5168    0.8160    0.0000 C   0  0
    4.2632    0.0332    0.0000 S   0  0
    5.3497    0.8147    0.0000 N   0  0
    5.6038    0.0324    0.0000 N   0  0
    4.9349   -0.4506    0.0000 C   0  0
    4.9388   -1.2772    0.0000 C   0  0
    4.2259   -1.6894    0.0000 C   0  0
    5.6553   -1.6916    0.0000 C   0  0
   -0.7977    2.9496    0.0000 C   0  0
   -1.5182    2.5440    0.0000 N   0  0
   -0.0851    2.5220    0.0000 C   0  0
   -0.0060    1.7022    0.0000 C   0  0
    0.6565    2.8545    0.0000 C   0  0
    1.2126    2.2385    0.0000 C   0  0
    0.8026    1.5256    0.0000 C   0  0
    1.2135    0.8100    0.0000 C   0  0
    2.0427    0.8105    0.0000 C   0  0
    2.4548    1.5284    0.0000 C   0  0
    2.0456    2.2408    0.0000 C   0  0
    3.2825    1.5252    0.0000 S   0  0
    3.3232    2.4011    0.0000 O   0  0
    3.2815    0.7030    0.0000 O   0  0
 16 17  1  0
 17 18  1  0
 28 31  1  0
 30 29  1  0
 29 27  1  0
 30 31  2  0
 31 32  1  0
 32 33  2  0
 33 34  1  0
 34 35  2  0
 35 30  1  0
 25 26  1  0
 25 27  1  0
 27 28  1  0
 34 36  1  0
 36 37  2  0
 36 16  1  0
 36 38  2  0
 18 21  1  0
 20 19  1  0
 19 17  2  0
 20 21  2  0
 21 22  1  0
 22 23  1  0
 22 24  1  0
 26  1  1  0
  1  2  1  0
  1  3  2  0
  2  4  2  0
  4  5  1  0
  5  6  2  0
  6  7  1  0
  7  8  2  0
  8  2  1  0
  8  9  1  0
  9 10  1  0
 10 11  1  0
  6 12  1  0
 12 13  1  0
 12 14  1  0
 12 15  1  0
M  END
>  <ID_NEW>
CPDPP3305

>  <pEC50>
6.350799976104014

$$$$

  SciTegic12180812572D

 29 32  0  0  0  0            999 V2000
   -0.6119    2.4059    0.0000 C   0  0
   -0.9861    1.7519    0.0000 C   0  0
   -0.6103    1.0989    0.0000 C   0  0
    0.1438    1.0998    0.0000 C   0  0
    0.5180    1.7538    0.0000 C   0  0
    0.1422    2.4069    0.0000 C   0  0
   -1.7403    1.7510    0.0000 C   0  0
   -2.1145    1.0970    0.0000 C   0  0
   -2.8687    1.0961    0.0000 N   0  0
    1.2722    1.7547    0.0000 C   0  0
    1.7149    1.1463    0.0000 N   0  0
    2.4323    1.3812    0.0000 O   0  0
    2.4314    2.1312    0.0000 C   0  0
    1.7134    2.3643    0.0000 N   0  0
    3.0398    2.5738    0.0000 O   0  0
   -3.2445    1.7492    0.0000 C   0  0
   -2.8703    2.4031    0.0000 C   0  0
   -3.2461    3.0562    0.0000 C   0  0
   -2.8719    3.7060    0.0000 C   0  0
   -4.8005   -1.5009    0.0000 C   0  0
   -4.1466   -1.8751    0.0000 C   0  0
   -3.4977   -1.4993    0.0000 C   0  0
   -4.8015   -0.7467    0.0000 C   0  0
   -4.1484   -0.3709    0.0000 C   0  0
   -3.4986   -0.7451    0.0000 C   0  0
   -2.9394   -0.2420    0.0000 N   0  0
   -3.2429    0.4462    0.0000 C   0  0
   -3.9956    0.3657    0.0000 S   0  0
   -5.4536   -1.8767    0.0000 Cl  0  0
 17 18  1  0
  7  8  1  0
 18 19  1  0
  8  9  1  0
  4  5  1  0
  2  3  1  0
 10 11  2  0
  5  6  2  0
  5 10  1  0
  6  1  1  0
 11 12  1  0
 12 13  1  0
 13 14  1  0
 14 10  1  0
 13 15  2  0
  1  2  2  0
  9 16  1  0
  2  7  1  0
 16 17  1  0
  3  4  2  0
 21 22  1  0
 22 25  2  0
 20 21  2  0
 24 23  2  0
 25 26  1  0
 26 27  2  0
 27 28  1  0
 28 24  1  0
 23 20  1  0
 24 25  1  0
 20 29  1  0
  9 27  1  0
M  END
>  <ID_NEW>
CPDPP3306

>  <pEC50>
6.342405542569249

$$$$

  SciTegic12180813072D

 32 35  0  0  0  0            999 V2000
   -4.6448    1.5319    0.0000 C   0  0
   -4.6425    2.6128    0.0000 C   0  0
   -4.0162    1.5325    0.0000 C   0  0
   -4.0150    2.6154    0.0000 C   0  0
   -3.7024    2.0672    0.0000 C   0  0
   -3.6991    0.9830    0.0000 Cl  0  0
   -3.0743    2.0682    0.0000 C   0  0
   -2.7586    1.5307    0.0000 O   0  0
    1.0018    3.5538    0.0000 N   0  0
    1.5395    3.2407    0.0000 C   0  0
    1.6739    2.6219    0.0000 N   0  0
    2.2945    2.5541    0.0000 N   0  0
    2.5533    3.1168    0.0000 C   0  0
    2.0911    3.5470    0.0000 S   0  0
   -1.1750    2.9254    0.0000 C   0  0
   -1.1750    2.3005    0.0000 C   0  0
   -1.7669    3.1186    0.0000 C   0  0
   -0.6350    3.2448    0.0000 C   0  0
   -1.7705    2.1108    0.0000 C   0  0
   -0.6371    1.9887    0.0000 C   0  0
   -2.1342    2.6126    0.0000 C   0  0
   -0.0949    2.9266    0.0000 C   0  0
   -0.0923    2.3026    0.0000 C   0  0
   -2.7596    2.6111    0.0000 N   0  0
    0.4579    3.2451    0.0000 S   0  0
    0.7694    2.6925    0.0000 O   0  0
    0.1414    3.7844    0.0000 O   0  0
    3.1661    3.2409    0.0000 C   0  0
    3.5779    2.7697    0.0000 C   0  0
    3.3672    3.8320    0.0000 C   0  0
   -4.9571    2.0693    0.0000 C   0  0
   -5.5787    2.0688    0.0000 Cl  0  0
 25  9  1  0
 25 26  2  0
 25 27  2  0
 22 25  1  0
  9 10  1  0
 10 11  2  0
 11 12  1  0
 12 13  2  0
 13 14  1  0
 14 10  1  0
 15 16  2  0
 15 17  1  0
 15 18  1  0
 16 19  1  0
 16 20  1  0
 17 21  1  0
 18 22  2  0
 20 23  2  0
 21 24  1  0
 19 21  1  0
 22 23  1  0
  7  8  2  0
  4  5  1  0
 31  1  2  0
 31  2  1  0
  1  3  1  0
  2  4  2  0
  3  5  2  0
  3  6  1  0
  5  7  1  0
 24  7  1  0
 13 28  1  0
 28 29  1  0
 28 30  1  0
 31 32  1  0
M  END
>  <ID_NEW>
CPDPP3307

>  <pEC50>
6.328713797513263

$$$$

  SciTegic12180812592D

 33 35  0  0  0  0            999 V2000
   11.6199   -9.2105    0.0000 C   0  0
   11.6333  -10.7104    0.0000 C   0  0
   12.9390  -11.4488    0.0000 C   0  0
   14.2313  -10.6872    0.0000 C   0  0
   14.2179   -9.1873    0.0000 C   0  0
   12.9122   -8.4489    0.0000 C   0  0
   10.3142   -8.4721    0.0000 Cl  0  0
   15.5369  -11.4256    0.0000 O   0  0
   15.5102   -8.4257    0.0000 C   0  0
   16.8158   -9.1641    0.0000 N   0  0
   15.4968   -6.9258    0.0000 O   0  0
   18.1081   -8.4025    0.0000 C   0  0
   19.4138   -9.1409    0.0000 C   0  0
   20.7061   -8.3793    0.0000 C   0  0
   22.0118   -9.1177    0.0000 C   0  0
   23.3041   -8.3561    0.0000 C   0  0
   23.2907   -6.8562    0.0000 C   0  0
   21.9850   -6.1178    0.0000 C   0  0
   20.6927   -6.8794    0.0000 C   0  0
   24.5830   -6.0946    0.0000 S   0  0
   25.9879   -5.5690    0.0000 O   0  0
   25.2290   -7.4483    0.0000 O   0  0
   15.5503  -12.9255    0.0000 C   0  0
   26.5369    0.0767    0.0000 C   0  0
   26.3155   -1.4069    0.0000 C   0  0
   28.0272    0.2468    0.0000 F   0  0
   25.0397    0.1680    0.0000 F   0  0
   26.4973    1.5762    0.0000 F   0  0
   24.9851   -2.0998    0.0000 S   0  0
   27.3856   -2.4580    0.0000 N   0  0
   25.2330   -3.5791    0.0000 C   0  0
   26.7165   -3.8006    0.0000 N   0  0
   24.1818   -4.6492    0.0000 N   0  0
 10 12  1  0
  6  1  1  0
 12 13  1  0
  1  2  2  0
 13 14  1  0
  1  7  1  0
 14 15  2  0
  3  4  2  0
 15 16  1  0
  4  8  1  0
 16 17  2  0
 17 18  1  0
  5  9  1  0
 18 19  2  0
 19 14  1  0
  4  5  1  0
 17 20  1  0
  9 10  1  0
 20 21  2  0
  2  3  1  0
 20 22  2  0
  9 11  2  0
  5  6  2  0
  8 23  1  0
 24 25  1  0
 24 26  1  0
 24 27  1  0
 24 28  1  0
 25 29  1  0
 25 30  2  0
 29 31  1  0
 30 32  1  0
 31 33  1  0
 31 32  2  0
 20 33  1  0
M  END
>  <ID_NEW>
CPDPP3308

>  <pEC50>
6.328391219033034

$$$$

  SciTegic12180813512D

 31 35  0  0  0  0            999 V2000
    4.8794   -5.6092    0.0000 C   0  0
    4.6633   -6.3992    0.0000 N   0  0
    5.3539   -6.8508    0.0000 C   0  0
    5.9948   -6.3354    0.0000 O   0  0
    5.7036   -5.5684    0.0000 N   0  0
    5.3951   -7.6754    0.0000 O   0  0
    0.6889    0.6445    0.0000 C   0  0
   -0.0214    1.0561    0.0000 C   0  0
   -0.7393    0.6417    0.0000 C   0  0
   -0.7397   -0.1839    0.0000 C   0  0
   -0.0245   -0.5979    0.0000 N   0  0
    0.6905   -0.1852    0.0000 C   0  0
   -1.4606    1.0636    0.0000 C   0  0
    5.1846   -4.2138    0.0000 C   0  0
    4.9321   -3.4275    0.0000 C   0  0
    4.1271   -3.2512    0.0000 C   0  0
    3.5740   -3.8641    0.0000 C   0  0
    3.8266   -4.6489    0.0000 C   0  0
    4.6319   -4.8215    0.0000 C   0  0
    3.8739   -2.4632    0.0000 S   0  0
    3.0857   -2.7190    0.0000 O   0  0
    4.6616   -2.2121    0.0000 O   0  0
    3.6181   -1.6777    0.0000 N   0  0
    1.4069   -0.6000    0.0000 C   0  0
    1.4057   -1.4232    0.0000 C   0  0
    2.1247   -1.8360    0.0000 C   0  0
    2.1229   -0.1872    0.0000 C   0  0
    2.8341   -0.5964    0.0000 C   0  0
    2.8348   -1.4228    0.0000 C   0  0
    4.1000   -1.0146    0.0000 C   0  0
    3.6186   -0.3447    0.0000 C   0  0
  1  2  1  0
  2  3  1  0
  3  4  1  0
  4  5  1  0
  5  1  2  0
  3  6  2  0
  9 13  1  0
  9 10  2  0
 10 11  1  0
  8  9  1  0
 11 12  2  0
 12  7  1  0
 20 22  2  0
 18 19  2  0
 19 14  1  0
 14 15  2  0
 19  1  1  0
 16 17  2  0
 16 20  1  0
 17 18  1  0
 20 21  2  0
 15 16  1  0
 25 26  1  0
 26 29  2  0
 24 25  2  0
 28 27  2  0
 29 23  1  0
 23 30  1  0
 30 31  1  0
 31 28  1  0
 27 24  1  0
 28 29  1  0
 23 20  1  0
 24 12  1  0
  7  8  2  0
M  END
>  <ID_NEW>
CPDPP3309

>  <pEC50>
6.328067725637905

$$$$

  SciTegic12180813002D

 33 37  0  0  0  0            999 V2000
    9.4712   -2.8489    0.0000 C   0  0
    8.6444   -2.8783    0.0000 C   0  0
    8.2582   -3.6079    0.0000 C   0  0
    8.6977   -4.3086    0.0000 C   0  0
    9.5276   -4.2750    0.0000 C   0  0
    9.9100   -3.5450    0.0000 C   0  0
    7.4337   -3.6381    0.0000 O   0  0
    9.9688   -4.9721    0.0000 Cl  0  0
   10.7343   -3.5121    0.0000 C   0  0
    3.5181   -2.3655    0.0000 C   0  0
    2.6858   -2.3655    0.0000 C   0  0
    3.9339   -3.0812    0.0000 C   0  0
    3.5181   -3.7969    0.0000 C   0  0
    4.7573   -3.0812    0.0000 C   0  0
    2.6875   -3.7958    0.0000 C   0  0
    2.2693   -3.0812    0.0000 N   0  0
    1.4435   -3.0811    0.0000 C   0  0
    1.0318   -2.3661    0.0000 C   0  0
    0.2073   -2.3655    0.0000 C   0  0
   -0.2093   -3.0829    0.0000 C   0  0
    0.2093   -3.7994    0.0000 C   0  0
    1.0357   -3.7981    0.0000 C   0  0
    5.2377   -3.7416    0.0000 S   0  0
    6.0205   -3.4879    0.0000 C   0  0
    6.0204   -2.6685    0.0000 C   0  0
    5.2377   -2.4151    0.0000 N   0  0
    6.6837   -2.1834    0.0000 C   0  0
    6.6837   -3.9729    0.0000 C   0  0
   11.2480   -4.1562    0.0000 N   0  0
   12.0218   -3.8702    0.0000 O   0  0
   11.9889   -3.0458    0.0000 C   0  0
   11.1948   -2.8225    0.0000 N   0  0
   12.6364   -2.5346    0.0000 O   0  0
  5  6  2  0
  6  1  1  0
  3  7  1  0
  5  8  1  0
 22 17  1  0
 16 11  1  0
 14 23  1  0
 13 15  1  0
 10 12  1  0
 10 11  1  0
 23 24  1  0
 24 25  2  0
 25 26  1  0
 26 14  2  0
 12 13  1  0
 25 27  1  0
 12 14  1  0
 24 28  1  0
 15 16  1  0
 16 17  1  0
 17 18  2  0
 18 19  1  0
 19 20  2  0
 28  7  1  0
 20 21  1  0
 21 22  2  0
  6  9  1  0
  9 29  2  0
  1  2  2  0
  2  3  1  0
  3  4  2  0
 29 30  1  0
 30 31  1  0
 31 32  1  0
 32  9  1  0
  4  5  1  0
 31 33  2  0
M  END
>  <ID_NEW>
CPDPP3310

>  <pEC50>
6.318462606900001

$$$$

  SciTegic12180812592D

 35 38  0  0  0  0            999 V2000
  -11.0412  -16.5357    0.0000 C   0  0
  -11.0278  -18.0356    0.0000 C   0  0
   -9.7222  -18.7740    0.0000 C   0  0
   -8.4299  -18.0124    0.0000 C   0  0
   -8.4433  -16.5125    0.0000 C   0  0
   -9.7489  -15.7741    0.0000 C   0  0
  -12.3469  -15.7973    0.0000 Cl  0  0
   -7.1242  -18.7508    0.0000 O   0  0
   -7.1510  -15.7509    0.0000 C   0  0
   -5.8453  -16.4893    0.0000 N   0  0
   -7.1644  -14.2510    0.0000 O   0  0
   -4.5530  -15.7277    0.0000 C   0  0
   -3.2473  -16.4661    0.0000 C   0  0
   -1.9550  -15.7045    0.0000 C   0  0
   -0.6493  -16.4429    0.0000 C   0  0
    0.6429  -15.6813    0.0000 C   0  0
    0.6296  -14.1814    0.0000 C   0  0
   -0.6761  -13.4430    0.0000 C   0  0
   -1.9684  -14.2046    0.0000 C   0  0
    1.9218  -13.4198    0.0000 S   0  0
    3.3267  -12.8942    0.0000 O   0  0
    2.5679  -14.7735    0.0000 O   0  0
   -7.1108  -20.2507    0.0000 C   0  0
    2.5718  -10.9043    0.0000 C   0  0
    4.0554  -11.1257    0.0000 N   0  0
    4.7244   -9.7832    0.0000 N   0  0
    3.6543   -8.7321    0.0000 C   0  0
    2.3240   -9.4250    0.0000 S   0  0
    1.5207  -11.9744    0.0000 N   0  0
    3.8758   -7.2485    0.0000 C   0  0
    5.2713   -6.6985    0.0000 C   0  0
    5.4927   -5.2149    0.0000 C   0  0
    4.3186   -4.2814    0.0000 C   0  0
    2.9231   -4.8314    0.0000 C   0  0
    2.7017   -6.3150    0.0000 C   0  0
 10 12  1  0
  6  1  1  0
 12 13  1  0
  1  2  2  0
 13 14  1  0
  1  7  1  0
 14 15  2  0
  3  4  2  0
 15 16  1  0
  4  8  1  0
 16 17  2  0
 17 18  1  0
  5  9  1  0
 18 19  2  0
 19 14  1  0
  4  5  1  0
 17 20  1  0
  9 10  1  0
 20 21  2  0
  2  3  1  0
 20 22  2  0
  9 11  2  0
  5  6  2  0
  8 23  1  0
 29 24  1  0
 27 30  1  0
 25 26  1  0
 30 31  2  0
 26 27  2  0
 31 32  1  0
 27 28  1  0
 32 33  2  0
 28 24  1  0
 33 34  1  0
 24 25  2  0
 34 35  2  0
 35 30  1  0
 20 29  1  0
M  END
>  <ID_NEW>
CPDPP3311

>  <pEC50>
6.31640406998552

$$$$

  SciTegic12180812592D

 29 32  0  0  0  0            999 V2000
    0.3506    3.4532    0.0000 C   0  0
   -0.0692    2.6734    0.0000 C   0  0
    0.3957    1.9222    0.0000 C   0  0
    1.2802    1.9496    0.0000 C   0  0
    1.6981    2.7343    0.0000 C   0  0
    1.2309    3.4823    0.0000 C   0  0
    2.5804    2.7650    0.0000 C   0  0
    1.7462    1.1997    0.0000 F   0  0
   -0.9545    2.6466    0.0000 C   0  0
   -1.3326    1.9138    0.0000 N   0  0
   -0.8222    1.1900    0.0000 C   0  0
   -1.1938    0.3861    0.0000 C   0  0
   -0.6833   -0.3377    0.0000 C   0  0
   -1.0549   -1.1417    0.0000 C   0  0
   -4.8639    2.3250    0.0000 C   0  0
   -4.8651    1.4977    0.0000 C   0  0
   -4.1503    1.0848    0.0000 C   0  0
   -4.1521    2.7378    0.0000 C   0  0
   -3.4367    2.3287    0.0000 C   0  0
   -3.4364    1.4976    0.0000 C   0  0
   -2.6460    1.2410    0.0000 N   0  0
   -2.1576    1.9135    0.0000 C   0  0
   -2.6464    2.5857    0.0000 S   0  0
   -5.5785    2.7374    0.0000 Cl  0  0
    3.1244    2.0716    0.0000 N   0  0
    3.9541    2.3735    0.0000 O   0  0
    3.9234    3.2559    0.0000 C   0  0
    3.0747    3.4992    0.0000 N   0  0
    4.6191    3.7994    0.0000 O   0  0
  1  2  2  0
  2  3  1  0
  3  4  2  0
  4  5  1  0
  5  6  2  0
  6  1  1  0
  5  7  1  0
  4  8  1  0
  2  9  1  0
 10 11  1  0
 11 12  1  0
 12 13  1  0
 13 14  1  0
 15 16  2  0
 16 17  1  0
 17 20  2  0
 19 18  2  0
 18 15  1  0
 19 20  1  0
 20 21  1  0
 21 22  2  0
 22 23  1  0
 23 19  1  0
 15 24  1  0
 22 10  1  0
 10  9  1  0
  7 25  2  0
 25 26  1  0
 26 27  1  0
 27 28  1  0
 28  7  1  0
 27 29  2  0
M  END
>  <ID_NEW>
CPDPP3312

>  <pEC50>
6.315755406872375

$$$$

  SciTegic12180813062D

 33 36  0  0  0  0            999 V2000
    1.6225    3.4704    0.0000 N   0  0
    2.3352    3.0532    0.0000 C   0  0
    2.5071    2.2385    0.0000 N   0  0
    3.3277    2.1499    0.0000 N   0  0
    3.6699    2.8959    0.0000 C   0  0
    3.0576    3.4594    0.0000 S   0  0
    4.4850    3.0608    0.0000 C   0  0
    5.0218    2.4382    0.0000 C   0  0
    4.7550    3.8317    0.0000 C   0  0
   -1.2460    2.6420    0.0000 C   0  0
   -1.2460    1.8171    0.0000 C   0  0
   -2.0295    2.8977    0.0000 C   0  0
   -0.5351    3.0573    0.0000 C   0  0
   -2.0331    1.5650    0.0000 C   0  0
   -0.5372    1.4053    0.0000 C   0  0
   -2.5135    2.2251    0.0000 C   0  0
    0.1800    2.6432    0.0000 C   0  0
    0.1826    1.8192    0.0000 C   0  0
   -3.3389    2.2236    0.0000 N   0  0
    0.9036    3.0576    0.0000 S   0  0
    1.3151    2.3342    0.0000 O   0  0
    0.4913    3.7760    0.0000 O   0  0
   -3.7501    1.5097    0.0000 C   0  0
   -4.5762    1.5095    0.0000 N   0  0
   -4.9873    0.7951    0.0000 C   0  0
   -4.5735    0.0804    0.0000 C   0  0
   -3.7442    0.0846    0.0000 C   0  0
   -3.3368    0.7996    0.0000 C   0  0
   -4.9812   -0.6393    0.0000 C   0  0
   -5.3545   -1.2906    0.0000 F   0  0
   -5.8319   -0.7796    0.0000 F   0  0
   -4.6723   -1.4442    0.0000 F   0  0
   -2.5118    0.8033    0.0000 Cl  0  0
 20  1  1  0
 20 21  2  0
 20 22  2  0
 17 20  1  0
  1  2  1  0
  2  3  2  0
  3  4  1  0
  4  5  2  0
  5  6  1  0
  6  2  1  0
  5  7  1  0
  7  8  1  0
  7  9  1  0
 10 11  2  0
 10 12  1  0
 10 13  1  0
 11 14  1  0
 11 15  1  0
 12 16  1  0
 13 17  2  0
 15 18  2  0
 16 19  1  0
 14 16  1  0
 17 18  1  0
 23 24  2  0
 24 25  1  0
 25 26  2  0
 26 27  1  0
 27 28  2  0
 28 23  1  0
 19 23  1  0
 29 30  1  0
 29 31  1  0
 29 32  1  0
 26 29  1  0
 28 33  1  0
M  END
>  <ID_NEW>
CPDPP3313

>  <pEC50>
6.311364110396512

$$$$

  -MTS-   10172316532D 0   0.00000     0.00000     0

 38 41  0  0  1  0  0  0  0  0999 V2000
   -4.1570    2.3080    0.0000 C   0  0  0  0  0  0  0  0  0  0  0  0
   -4.5740    1.5990    0.0000 C   0  0  0  0  0  0  0  0  0  0  0  0
   -3.3290    2.3030    0.0000 C   0  0  0  0  0  0  0  0  0  0  0  0
   -4.1630    0.8790    0.0000 C   0  0  0  0  0  0  0  0  0  0  0  0
   -2.9200    1.5820    0.0000 C   0  0  0  0  0  0  0  0  0  0  0  0
   -3.3430    0.8680    0.0000 C   0  0  0  0  0  0  0  0  0  0  0  0
   -4.5840    0.1590    0.0000 O   0  0  0  0  0  0  0  0  0  0  0  0
   -2.9310    0.1520    0.0000 C   0  0  0  0  0  0  0  0  0  0  0  0
   -3.3470   -0.5620    0.0000 O   0  0  0  0  0  0  0  0  0  0  0  0
   -4.5680    3.0230    0.0000 C   0  0  0  0  0  0  0  0  0  0  0  0
   -5.4170    0.1600    0.0000 C   0  0  0  0  0  0  0  0  0  0  0  0
   -5.8310   -0.5520    0.0000 C   0  0  0  0  0  0  0  0  0  0  0  0
   -4.9810    3.7380    0.0000 F   0  0  0  0  0  0  0  0  0  0  0  0
   -3.8540    3.4370    0.0000 F   0  0  0  0  0  0  0  0  0  0  0  0
   -5.2810    2.6110    0.0000 F   0  0  0  0  0  0  0  0  0  0  0  0
    2.4540    2.2930    0.0000 N   0  0  0  0  0  0  0  0  0  0  0  0
    2.8670    1.5800    0.0000 C   0  0  0  0  0  0  0  0  0  0  0  0
    2.4560    0.8650    0.0000 N   0  0  0  0  0  0  0  0  0  0  0  0
    3.0140    0.2470    0.0000 N   0  0  0  0  0  0  0  0  0  0  0  0
    3.7600    0.5890    0.0000 C   0  0  0  0  0  0  0  0  0  0  0  0
    3.6770    1.4070    0.0000 S   0  0  0  0  0  0  0  0  0  0  0  0
    4.4880    0.1790    0.0000 C   0  0  0  0  0  0  0  0  0  0  0  0
    4.5040   -0.6520    0.0000 C   0  0  0  0  0  0  0  0  0  0  0  0
    5.2000    0.5960    0.0000 C   0  0  0  0  0  0  0  0  0  0  0  0
    1.6310    2.2920    0.0000 S   0  0  0  0  0  0  0  0  0  0  0  0
    1.6320    3.1210    0.0000 O   0  0  0  0  0  0  0  0  0  0  0  0
    1.6320    1.4700    0.0000 O   0  0  0  0  0  0  0  0  0  0  0  0
    0.8070    2.2930    0.0000 C   0  0  0  0  0  0  0  0  0  0  0  0
    0.3940    3.0090    0.0000 C   0  0  0  0  0  0  0  0  0  0  0  0
   -0.4350    3.0100    0.0000 C   0  0  0  0  0  0  0  0  0  0  0  0
    0.3940    1.5830    0.0000 C   0  0  0  0  0  0  0  0  0  0  0  0
   -0.4340    1.5800    0.0000 C   0  0  0  0  0  0  0  0  0  0  0  0
   -0.8480    2.2920    0.0000 C   0  0  0  0  0  0  0  0  0  0  0  0
   -1.6760    2.2950    0.0000 C   0  0  0  0  0  0  0  0  0  0  0  0
   -2.0880    1.5820    0.0000 C   0  0  0  0  0  0  0  0  0  0  0  0
   -1.6780    0.8660    0.0000 C   0  0  2  0  0  0  0  0  0  0  0  0
   -0.8480    0.8660    0.0000 C   0  0  0  0  0  0  0  0  0  0  0  0
   -2.1040    0.1490    0.0000 N   0  0  0  0  0  0  0  0  0  0  0  0
 10 15  1  0  0  0  0
 19 20  2  0  0  0  0
 20 21  1  0  0  0  0
 21 17  1  0  0  0  0
 20 22  1  0  0  0  0
 22 23  1  0  0  0  0
 22 24  1  0  0  0  0
 16 17  1  0  0  0  0
 17 18  2  0  0  0  0
 18 19  1  0  0  0  0
 25 26  2  0  0  0  0
 28 29  2  0  0  0  0
 29 30  1  0  0  0  0
 30 33  2  0  0  0  0
 32 31  2  0  0  0  0
 31 28  1  0  0  0  0
 32 33  1  0  0  0  0
 32 37  1  0  0  0  0
 33 34  1  0  0  0  0
 34 35  1  0  0  0  0
 35 36  1  0  0  0  0
 36 37  1  0  0  0  0
 36 38  1  6  0  0  0
 25 27  2  0  0  0  0
 25 28  1  0  0  0  0
 16 25  1  0  0  0  0
  8  9  2  0  0  0  0
  5  6  1  0  0  0  0
  1 10  1  0  0  0  0
  1  2  2  0  0  0  0
  1  3  1  0  0  0  0
  2  4  1  0  0  0  0
  3  5  2  0  0  0  0
  4  6  2  0  0  0  0
  4  7  1  0  0  0  0
  6  8  1  0  0  0  0
  7 11  1  0  0  0  0
 11 12  1  0  0  0  0
 10 13  1  0  0  0  0
 10 14  1  0  0  0  0
 38  8  1  0  0  0  0
M  END
>  <ID_NEW>
CPDPP3314

>  <pEC50>
6.305929776442629

$$$$

  SciTegic12180813582D

 37 41  0  0  0  0            999 V2000
    5.6041   -5.4446    0.0000 C   0  0
    5.6010   -6.2645    0.0000 N   0  0
    6.3839   -6.5200    0.0000 C   0  0
    6.8748   -5.8624    0.0000 O   0  0
    6.3902   -5.1883    0.0000 N   0  0
    6.6399   -7.3065    0.0000 O   0  0
    5.3489   -3.2836    0.0000 C   0  0
    5.1686   -4.0902    0.0000 C   0  0
    5.7751   -4.6447    0.0000 C   0  0
    6.5623   -4.3855    0.0000 C   0  0
    6.7387   -3.5884    0.0000 C   0  0
    6.1358   -3.0375    0.0000 C   0  0
    6.3166   -2.2250    0.0000 S   0  0
    7.1212   -2.4045    0.0000 O   0  0
    5.5045   -2.0462    0.0000 O   0  0
    3.3031    1.0531    0.0000 C   0  0
    2.4716    1.0529    0.0000 C   0  0
    2.0575    0.3271    0.0000 C   0  0
    2.4695   -0.3866    0.0000 C   0  0
    3.2958   -0.3866    0.0000 C   0  0
    3.7145    0.3357    0.0000 C   0  0
    1.2326    0.3218    0.0000 C   0  0
    0.4050    0.3169    0.0000 F   0  0
    1.2353   -0.5036    0.0000 F   0  0
    1.2279    1.1490    0.0000 F   0  0
    4.4277   -0.0791    0.0000 C   0  0
    4.4266   -0.9023    0.0000 C   0  0
    5.1456   -1.3152    0.0000 C   0  0
    5.1438    0.3336    0.0000 C   0  0
    5.8542   -0.9015    0.0000 C   0  0
    5.8550   -0.0755    0.0000 C   0  0
    6.4989    0.4348    0.0000 C   0  0
    6.4961   -1.4133    0.0000 N   0  0
    7.2993    0.2505    0.0000 N   0  0
    7.2975   -1.2294    0.0000 C   0  0
    7.6558   -0.4919    0.0000 C   0  0
    4.3788   -4.3397    0.0000 Cl  0  0
  3  4  1  0
  4  5  1  0
  5  1  2  0
  3  6  2  0
  1  2  1  0
  2  3  1  0
  9 10  2  0
 12 13  1  0
 13 14  2  0
 10 11  1  0
 13 15  2  0
  8  9  1  0
 11 12  2  0
 12  7  1  0
  7  8  2  0
  9  1  1  0
 21 16  1  0
 16 17  2  0
 18 19  2  0
 18 22  1  0
 22 23  1  0
 19 20  1  0
 22 24  1  0
 17 18  1  0
 26 21  1  0
 22 25  1  0
 20 21  2  0
 29 26  1  0
 33 35  1  0
 34 36  1  0
 35 36  1  0
 27 28  1  0
 30 31  1  0
 28 30  2  0
 31 32  1  0
 26 27  2  0
 30 33  1  0
 31 29  2  0
 32 34  1  0
 33 13  1  0
  8 37  1  0
M  END
>  <ID_NEW>
CPDPP3315

>  <pEC50>
6.304124635748411

$$$$

  -MTS-   10172316532D 0   0.00000     0.00000     0

 42 46  0  0  0  0  0  0  0  0999 V2000
    5.1040    0.8040    0.0000 O   0  0  0  0  0  0  0  0  0  0  0  0
    0.0790   -4.8830    0.0000 C   0  0  0  0  0  0  0  0  0  0  0  0
    0.0790   -5.5920    0.0000 C   0  0  1  0  0  0  0  0  0  0  0  0
    0.6910   -5.9460    0.0000 C   0  0  0  0  0  0  0  0  0  0  0  0
    1.3030   -5.5920    0.0000 C   0  0  0  0  0  0  0  0  0  0  0  0
    1.3030   -4.8830    0.0000 C   0  0  2  0  0  0  0  0  0  0  0  0
    0.6910   -4.5290    0.0000 C   0  0  0  0  0  0  0  0  0  0  0  0
   -0.5340   -5.9450    0.0000 C   0  0  0  0  0  0  0  0  0  0  0  0
    1.9170   -4.5290    0.0000 C   0  0  0  0  0  0  0  0  0  0  0  0
   -1.1480   -5.5910    0.0000 F   0  0  0  0  0  0  0  0  0  0  0  0
   -0.5350   -6.6540    0.0000 F   0  0  0  0  0  0  0  0  0  0  0  0
   -0.7170   -5.2610    0.0000 F   0  0  0  0  0  0  0  0  0  0  0  0
    2.5660   -4.8230    0.0000 N   0  0  0  0  0  0  0  0  0  0  0  0
    3.0400   -4.2960    0.0000 C   0  0  0  0  0  0  0  0  0  0  0  0
    2.6860   -3.6830    0.0000 C   0  0  0  0  0  0  0  0  0  0  0  0
    1.9930   -3.8300    0.0000 S   0  0  0  0  0  0  0  0  0  0  0  0
    3.7440   -4.3710    0.0000 C   0  0  0  0  0  0  0  0  0  0  0  0
    4.0320   -5.0180    0.0000 N   0  0  0  0  0  0  0  0  0  0  0  0
    3.6100   -5.5910    0.0000 C   0  0  0  0  0  0  0  0  0  0  0  0
    3.8950   -6.2360    0.0000 C   0  0  0  0  0  0  0  0  0  0  0  0
    4.5990   -6.3140    0.0000 C   0  0  0  0  0  0  0  0  0  0  0  0
    5.0180   -5.7420    0.0000 C   0  0  0  0  0  0  0  0  0  0  0  0
    4.7320   -5.0910    0.0000 C   0  0  0  0  0  0  0  0  0  0  0  0
    4.8840   -6.9620    0.0000 C   0  0  0  0  0  0  0  0  0  0  0  0
    4.4660   -7.5340    0.0000 F   0  0  0  0  0  0  0  0  0  0  0  0
    5.5890   -7.0390    0.0000 F   0  0  0  0  0  0  0  0  0  0  0  0
    4.1840   -7.0700    0.0000 F   0  0  0  0  0  0  0  0  0  0  0  0
    2.9740   -3.0360    0.0000 C   0  0  0  0  0  0  0  0  0  0  0  0
    3.6790   -2.9620    0.0000 O   0  0  0  0  0  0  0  0  0  0  0  0
    3.9670   -2.3150    0.0000 C   0  0  0  0  0  0  0  0  0  0  0  0
    4.6710   -2.2440    0.0000 C   0  0  0  0  0  0  0  0  0  0  0  0
    4.9590   -1.5980    0.0000 C   0  0  0  0  0  0  0  0  0  0  0  0
    4.5430   -1.0240    0.0000 C   0  0  0  0  0  0  0  0  0  0  0  0
    3.8350   -1.1010    0.0000 C   0  0  0  0  0  0  0  0  0  0  0  0
    3.5500   -1.7470    0.0000 C   0  0  0  0  0  0  0  0  0  0  0  0
    5.6630   -1.5250    0.0000 O   0  0  0  0  0  0  0  0  0  0  0  0
    6.0790   -2.0980    0.0000 C   0  0  0  0  0  0  0  0  0  0  0  0
    4.8300   -0.3770    0.0000 C   0  0  0  0  0  0  0  0  0  0  0  0
    5.5370   -0.3750    0.0000 N   0  0  0  0  0  0  0  0  0  0  0  0
    5.8870    0.2420    0.0000 C   0  0  0  0  0  0  0  0  0  0  0  0
    4.4430    0.2160    0.0000 N   0  0  0  0  0  0  0  0  0  0  0  0
    6.5790    0.3930    0.0000 O   0  0  0  0  0  0  0  0  0  0  0  0
  3  4  1  0  0  0  0
  4  5  1  0  0  0  0
  5  6  1  0  0  0  0
  6  7  1  0  0  0  0
 18 23  1  0  0  0  0
 19 20  1  0  0  0  0
 20 21  1  0  0  0  0
 21 22  1  0  0  0  0
 22 23  1  0  0  0  0
  3  8  1  1  0  0  0
 21 24  1  0  0  0  0
 24 25  1  0  0  0  0
  6  9  1  6  0  0  0
 24 26  1  0  0  0  0
 24 27  1  0  0  0  0
  8 10  1  0  0  0  0
 15 28  1  0  0  0  0
  2  3  1  0  0  0  0
 28 29  1  0  0  0  0
  8 11  1  0  0  0  0
 29 30  1  0  0  0  0
 30 31  2  0  0  0  0
  8 12  1  0  0  0  0
 31 32  1  0  0  0  0
  9 13  2  0  0  0  0
 32 33  2  0  0  0  0
 33 34  1  0  0  0  0
 34 35  2  0  0  0  0
 35 30  1  0  0  0  0
 32 36  1  0  0  0  0
 36 37  1  0  0  0  0
 13 14  1  0  0  0  0
 33 38  1  0  0  0  0
 14 15  2  0  0  0  0
 38 39  1  0  0  0  0
 15 16  1  0  0  0  0
 39 40  1  0  0  0  0
 16  9  1  0  0  0  0
 38 41  2  0  0  0  0
  1 40  1  0  0  0  0
 40 42  2  0  0  0  0
 14 17  1  0  0  0  0
  2  7  1  0  0  0  0
 17 18  1  0  0  0  0
 18 19  1  0  0  0  0
 41  1  1  0  0  0  0
V    3 M1
V    6 M1
M  END
>  <ID_NEW>
CPDPP3316

>  <pEC50>
6.3039887356360875

$$$$

  SciTegic12180812342D

 37 40  0  0  0  0            999 V2000
   -4.3705    1.2541    0.0000 C   0  0
   -3.9156    0.8222    0.0000 C   0  0
   -3.3145    1.0023    0.0000 C   0  0
   -3.1700    1.6110    0.0000 C   0  0
   -3.6301    2.0423    0.0000 C   0  0
   -4.2260    1.8621    0.0000 C   0  0
   -3.4877    2.6508    0.0000 C   0  0
   -3.8217    3.1803    0.0000 N   0  0
   -3.5307    3.7334    0.0000 O   0  0
   -2.8713    2.7544    0.0000 N   0  0
   -4.0605    0.2143    0.0000 O   0  0
   -3.6066   -0.2153    0.0000 C   0  0
   -3.7516   -0.8232    0.0000 C   0  0
   -4.3442   -1.3925    0.0000 S   0  0
   -4.0077   -1.8818    0.0000 C   0  0
   -3.4842   -1.7280    0.0000 N   0  0
   -3.3527   -1.1969    0.0000 C   0  0
   -2.8281   -1.0416    0.0000 C   0  0
   -2.4312   -1.4184    0.0000 C   0  0
   -1.9065   -1.2631    0.0000 C   0  0
   -1.5098   -1.6399    0.0000 C   0  0
   -4.3072   -2.4303    0.0000 C   0  0
   -4.9306   -2.4471    0.0000 C   0  0
   -5.2300   -2.9950    0.0000 C   0  0
   -4.9047   -3.5295    0.0000 C   0  0
   -4.2766   -3.5125    0.0000 C   0  0
   -3.9801   -2.9642    0.0000 C   0  0
   -5.2035   -4.0784    0.0000 C   0  0
   -5.8326   -4.0987    0.0000 F   0  0
   -4.8774   -4.6117    0.0000 F   0  0
   -5.6564   -3.6478    0.0000 F   0  0
   -2.5813    3.3031    0.0000 C   0  0
   -2.5458    1.6125    0.0000 S   0  0
   -2.7083    1.0125    0.0000 O   0  0
   -2.2375    2.1542    0.0000 O   0  0
   -1.9458    1.4542    0.0000 C   0  0
   -2.0042    3.8000    0.0000 O   0  0
 23 24  1  0
 24 25  2  0
 25 26  1  0
 26 27  2  0
 27 22  1  0
 25 28  1  0
 28 29  1  0
 28 30  1  0
 28 31  1  0
  1  2  2  0
  2  3  1  0
  3  4  2  0
  4  5  1  0
  5  6  2  0
  6  1  1  0
  5  7  1  0
  7  8  2  0
 10 32  1  0
  8  9  1  0
  7 10  1  0
  2 11  1  0
 11 12  1  0
 12 13  1  0
 13 14  1  0
 15 16  2  0
 16 17  1  0
 17 13  2  0
 14 15  1  0
 17 18  1  0
 18 19  1  0
 19 20  1  0
 20 21  1  0
 15 22  1  0
 22 23  2  0
  4 33  1  0
 33 34  2  0
 33 35  2  0
 33 36  1  0
 32 37  2  0
 32  9  1  0
M  END
>  <ID_NEW>
CPDPP3317

>  <pEC50>
6.29338657283163

$$$$

  -MTS-   10172316532D 0   0.00000     0.00000     0

 36 39  0  0  0  0  0  0  0  0999 V2000
    2.0080    1.6380    0.0000 C   0  0  0  0  0  0  0  0  0  0  0  0
    1.5960    0.9200    0.0000 C   0  0  0  0  0  0  0  0  0  0  0  0
    2.0110    0.2070    0.0000 C   0  0  0  0  0  0  0  0  0  0  0  0
    2.8380    0.2090    0.0000 C   0  0  0  0  0  0  0  0  0  0  0  0
    3.2480    0.9310    0.0000 C   0  0  0  0  0  0  0  0  0  0  0  0
    2.8310    1.6420    0.0000 C   0  0  0  0  0  0  0  0  0  0  0  0
    4.0730    0.9390    0.0000 C   0  0  0  0  0  0  0  0  0  0  0  0
    3.2540   -0.5030    0.0000 Cl  0  0  0  0  0  0  0  0  0  0  0  0
    0.7710    0.9180    0.0000 C   0  0  0  0  0  0  0  0  0  0  0  0
   -4.4030    1.6580    0.0000 C   0  0  0  0  0  0  0  0  0  0  0  0
   -4.4020    0.8310    0.0000 C   0  0  2  0  0  0  0  0  0  0  0  0
   -3.6750    0.4180    0.0000 C   0  0  0  0  0  0  0  0  0  0  0  0
   -2.9590    0.8310    0.0000 C   0  0  0  0  0  0  0  0  0  0  0  0
   -2.9620    1.6620    0.0000 C   0  0  1  0  0  0  0  0  0  0  0  0
   -3.6770    2.0710    0.0000 C   0  0  0  0  0  0  0  0  0  0  0  0
   -5.1200    0.4190    0.0000 C   0  0  0  0  0  0  0  0  0  0  0  0
   -5.8310    0.8320    0.0000 F   0  0  0  0  0  0  0  0  0  0  0  0
   -5.1190   -0.4060    0.0000 F   0  0  0  0  0  0  0  0  0  0  0  0
   -5.3320    1.2160    0.0000 F   0  0  0  0  0  0  0  0  0  0  0  0
   -2.2490    2.0770    0.0000 C   0  0  0  0  0  0  0  0  0  0  0  0
   -1.4940    1.7470    0.0000 S   0  0  0  0  0  0  0  0  0  0  0  0
   -0.9440    2.3620    0.0000 C   0  0  0  0  0  0  0  0  0  0  0  0
   -1.3600    3.0750    0.0000 C   0  0  0  0  0  0  0  0  0  0  0  0
   -2.1660    2.9000    0.0000 N   0  0  0  0  0  0  0  0  0  0  0  0
   -1.0270    3.8300    0.0000 C   0  0  0  0  0  0  0  0  0  0  0  0
   -0.1240    2.2790    0.0000 C   0  0  0  0  0  0  0  0  0  0  0  0
    0.2120    1.5260    0.0000 O   0  0  0  0  0  0  0  0  0  0  0  0
    0.3590    2.9480    0.0000 C   0  0  0  0  0  0  0  0  0  0  0  0
    1.1790    2.8650    0.0000 F   0  0  0  0  0  0  0  0  0  0  0  0
    0.0200    3.7010    0.0000 F   0  0  0  0  0  0  0  0  0  0  0  0
    0.8800    2.3090    0.0000 F   0  0  0  0  0  0  0  0  0  0  0  0
    4.5650    0.2800    0.0000 N   0  0  0  0  0  0  0  0  0  0  0  0
    5.3470    0.5430    0.0000 O   0  0  0  0  0  0  0  0  0  0  0  0
    5.3390    1.3680    0.0000 C   0  0  0  0  0  0  0  0  0  0  0  0
    4.5520    1.6150    0.0000 N   0  0  0  0  0  0  0  0  0  0  0  0
    6.0020    1.8590    0.0000 O   0  0  0  0  0  0  0  0  0  0  0  0
  5  6  2  0  0  0  0
  6  1  1  0  0  0  0
  1  2  2  0  0  0  0
  3  4  2  0  0  0  0
  5  7  1  0  0  0  0
  4  5  1  0  0  0  0
  4  8  1  0  0  0  0
  2  9  1  0  0  0  0
  2  3  1  0  0  0  0
 26 27  1  0  0  0  0
 10 11  1  0  0  0  0
 11 16  1  6  0  0  0
 12 13  1  0  0  0  0
 16 17  1  0  0  0  0
 16 18  1  0  0  0  0
 13 14  1  0  0  0  0
 16 19  1  0  0  0  0
 11 12  1  0  0  0  0
 14 20  1  1  0  0  0
 14 15  1  0  0  0  0
 15 10  1  0  0  0  0
 20 21  1  0  0  0  0
 21 22  1  0  0  0  0
 22 23  2  0  0  0  0
 23 24  1  0  0  0  0
 24 20  2  0  0  0  0
 23 25  1  0  0  0  0
 22 26  1  0  0  0  0
 26 28  1  0  0  0  0
 28 29  1  0  0  0  0
 28 30  1  0  0  0  0
 28 31  1  0  0  0  0
 27  9  1  0  0  0  0
  7 32  2  0  0  0  0
 32 33  1  0  0  0  0
 33 34  1  0  0  0  0
 34 35  1  0  0  0  0
 35  7  1  0  0  0  0
 34 36  2  0  0  0  0
V   11 M1
V   14 M1
M  END
>  <ID_NEW>
CPDPP3318

>  <pEC50>
6.286871926465754

$$$$

  SciTegic12180813012D

 32 34  0  0  0  0            999 V2000
    2.1361    4.9628    0.0000 C   0  0
    0.6833    4.5894    0.0000 C   0  0
    0.2802    3.1446    0.0000 C   0  0
    1.3299    2.0731    0.0000 C   0  0
    2.7827    2.4464    0.0000 C   0  0
    3.1858    3.8913    0.0000 C   0  0
   -0.3664    5.6609    0.0000 C   0  0
    3.8324    1.3750    0.0000 S   0  0
   -1.8192    5.2876    0.0000 C   0  0
   -2.8690    6.3590    0.0000 N   0  0
    4.6802    0.1375    0.0000 O   0  0
    2.6736    0.4226    0.0000 O   0  0
    5.1391    2.1116    0.0000 N   0  0
    6.4304    1.3483    0.0000 C   0  0
    6.5719   -0.1450    0.0000 N   0  0
    8.0358   -0.4719    0.0000 N   0  0
    8.7991    0.8194    0.0000 C   0  0
    7.8069    1.9443    0.0000 S   0  0
   10.2924    0.9608    0.0000 C   0  0
   10.9165    2.3248    0.0000 C   0  0
   11.1616   -0.2617    0.0000 C   0  0
   -5.3715    7.0572    0.0000 C   0  0
   -4.9684    8.5020    0.0000 C   0  0
   -6.8243    6.6838    0.0000 C   0  0
   -4.3218    5.9857    0.0000 C   0  0
   -6.0181    9.5735    0.0000 C   0  0
   -3.5156    8.8754    0.0000 O   0  0
   -7.8740    7.7553    0.0000 C   0  0
   -4.7248    4.5409    0.0000 O   0  0
   -7.4709    9.2001    0.0000 C   0  0
   -3.1126   10.3202    0.0000 C   0  0
   -9.3268    7.3820    0.0000 C   0  0
  5  8  1  0
  7  9  1  0
  9 10  1  0
  8 11  2  0
  8 12  2  0
  8 13  1  0
 13 14  1  0
 14 15  2  0
 15 16  1  0
 16 17  2  0
 17 18  1  0
 18 14  1  0
 17 19  1  0
 19 20  1  0
 19 21  1  0
  1  2  2  0
  2  3  1  0
  3  4  2  0
  4  5  1  0
  5  6  2  0
  6  1  1  0
  2  7  1  0
 22 23  1  0
 22 24  2  0
 22 25  1  0
 23 26  2  0
 23 27  1  0
 24 28  1  0
 25 29  2  0
 26 30  1  0
 27 31  1  0
 28 32  1  0
 28 30  2  0
 10 25  1  0
M  END
>  <ID_NEW>
CPDPP3319

>  <pEC50>
6.277065726560202

$$$$

  SciTegic12180813002D

 37 41  0  0  0  0            999 V2000
    6.9944   -2.8583    0.0000 C   0  0
    6.9932   -3.4857    0.0000 C   0  0
    7.5372   -3.7985    0.0000 C   0  0
    8.0786   -3.4852    0.0000 C   0  0
    8.0758   -2.8547    0.0000 C   0  0
    7.5354   -2.5455    0.0000 C   0  0
    8.6157   -2.5399    0.0000 C   0  0
    9.1583   -2.8501    0.0000 N   0  0
    9.5958   -2.4042    0.0000 C   0  0
   10.2010   -2.5602    0.0000 O   0  0
    9.4283   -1.8020    0.0000 O   0  0
    8.6130   -1.9149    0.0000 N   0  0
    8.6208   -3.7962    0.0000 O   0  0
    8.6225   -4.4212    0.0000 C   0  0
    6.4519   -3.7981    0.0000 O   0  0
    5.9107   -3.4856    0.0000 C   0  0
    5.3694   -3.7980    0.0000 C   0  0
    4.7981   -3.5417    0.0000 S   0  0
    4.3798   -4.0062    0.0000 C   0  0
    4.6923   -4.5475    0.0000 N   0  0
    5.3036   -4.4175    0.0000 C   0  0
    5.7679   -4.8360    0.0000 C   0  0
    5.6376   -5.4473    0.0000 N   0  0
    3.7583   -3.9408    0.0000 C   0  0
    3.5038   -3.3718    0.0000 C   0  0
    2.8828   -3.3062    0.0000 C   0  0
    2.5147   -3.8121    0.0000 C   0  0
    2.7720   -4.3852    0.0000 C   0  0
    3.3923   -4.4481    0.0000 C   0  0
    1.8931   -3.7475    0.0000 C   0  0
    1.6382   -3.1769    0.0000 F   0  0
    1.5263   -4.2536    0.0000 F   0  0
    2.1163   -3.1638    0.0000 F   0  0
    5.0431   -5.6401    0.0000 C   0  0
    4.4889   -5.3559    0.0000 C   0  0
    4.2049   -5.9127    0.0000 C   0  0
    4.7616   -6.1967    0.0000 C   0  0
  3  4  2  0
  4  5  1  0
  5  6  2  0
  6  1  1  0
  5  7  1  0
  7  8  1  0
  8  9  1  0
  9 10  2  0
  9 11  1  0
  7 12  2  0
 12 11  1  0
  4 13  1  0
 13 14  1  0
  2 15  1  0
 15 16  1  0
 16 17  1  0
 17 18  1  0
 18 19  1  0
 19 20  2  0
 20 21  1  0
 21 17  2  0
 21 22  1  0
 22 23  1  0
 19 24  1  0
 24 25  2  0
 25 26  1  0
 26 27  2  0
 27 28  1  0
 28 29  2  0
 29 24  1  0
 27 30  1  0
 30 31  1  0
 30 32  1  0
 30 33  1  0
 23 34  1  0
 34 35  1  0
 35 36  1  0
 36 37  1  0
 37 34  1  0
  1  2  2  0
  2  3  1  0
M  END
>  <ID_NEW>
CPDPP3320

>  <pEC50>
6.275050522165413

$$$$

  SciTegic12180813002D

 36 39  0  0  0  0            999 V2000
    7.0430   -3.6911    0.0000 C   0  0
    7.1581   -4.5080    0.0000 S   0  0
    7.9706   -4.6511    0.0000 C   0  0
    8.3577   -3.9225    0.0000 C   0  0
    7.7844   -3.3293    0.0000 N   0  0
    6.2772   -3.3821    0.0000 C   0  0
    6.1635   -2.5668    0.0000 C   0  0
    5.4019   -2.2592    0.0000 C   0  0
    4.7535   -2.7659    0.0000 C   0  0
    4.8715   -3.5837    0.0000 C   0  0
    5.6331   -3.8876    0.0000 C   0  0
    3.9879   -2.4583    0.0000 C   0  0
    3.8716   -1.6415    0.0000 F   0  0
    3.3387   -2.9674    0.0000 F   0  0
    4.4832   -1.7985    0.0000 F   0  0
    8.3324   -5.3926    0.0000 C   0  0
    9.1746   -3.8074    0.0000 C   0  0
    8.0623   -5.7899    0.0000 N   0  0
   10.1304   -6.4226    0.0000 C   0  0
    9.5453   -5.8187    0.0000 S   0  0
    9.7305   -7.1289    0.0000 N   0  0
   10.9508   -6.3332    0.0000 C   0  0
    8.8027   -6.1818    0.0000 C   0  0
    8.9279   -7.0132    0.0000 N   0  0
   11.4378   -6.9989    0.0000 C   0  0
   11.2825   -5.5753    0.0000 C   0  0
    5.2135   -7.4679    0.0000 C   0  0
    5.2135   -6.6377    0.0000 C   0  0
    5.9249   -7.8750    0.0000 C   0  0
    4.5031   -7.8834    0.0000 O   0  0
    5.9276   -6.2181    0.0000 C   0  0
    6.6418   -7.4679    0.0000 C   0  0
    6.6418   -6.6288    0.0000 C   0  0
    7.3564   -6.2140    0.0000 S   0  0
    6.9718   -5.4774    0.0000 O   0  0
    7.7339   -6.9442    0.0000 O   0  0
 16 18  1  0
  1  2  1  0
  2  3  1  0
  3  4  2  0
  4  5  1  0
  5  1  2  0
  6  7  2  0
  7  8  1  0
  8  9  2  0
  9 10  1  0
 10 11  2  0
 11  6  1  0
  9 12  1  0
 12 13  1  0
 12 14  1  0
 12 15  1  0
  6  1  1  0
  3 16  1  0
  4 17  1  0
 19 21  2  0
 19 22  1  0
 20 23  1  0
 21 24  1  0
 22 25  1  0
 22 26  1  0
 23 18  1  0
 23 24  2  0
 27 28  1  0
 27 29  2  0
 27 30  1  0
 28 31  2  0
 29 32  1  0
 31 33  1  0
 33 34  1  0
 34 35  2  0
 34 36  2  0
 32 33  2  0
 34 18  1  0
 19 20  1  0
M  END
>  <ID_NEW>
CPDPP3321

>  <pEC50>
6.274691775795891

$$$$

  SciTegic12180813012D

 31 33  0  0  0  0            999 V2000
   -1.5471    2.6559    0.0000 C   0  0
   -0.8518    3.0999    0.0000 S   0  0
   -0.4064    2.4095    0.0000 O   0  0
   -1.2972    3.7981    0.0000 O   0  0
   -0.1589    3.5484    0.0000 N   0  0
   -4.3955    1.8112    0.0000 C   0  0
   -3.6780    1.4039    0.0000 C   0  0
   -2.9666    1.8216    0.0000 C   0  0
   -2.2525    1.4130    0.0000 C   0  0
   -1.5415    1.8301    0.0000 C   0  0
   -2.2696    3.0630    0.0000 C   0  0
   -2.9776    2.6436    0.0000 C   0  0
    0.5756    3.1728    0.0000 C   0  0
    0.7013    2.3580    0.0000 S   0  0
    1.5159    2.2278    0.0000 C   0  0
    1.8916    2.9623    0.0000 N   0  0
    1.3090    3.5465    0.0000 N   0  0
    1.8894    1.4921    0.0000 C   0  0
    1.4390    0.8009    0.0000 C   0  0
    2.7132    1.4477    0.0000 C   0  0
   -5.1009    0.5685    0.0000 C   0  0
   -5.8104    0.1517    0.0000 O   0  0
   -4.3799    0.1589    0.0000 C   0  0
   -5.1070    1.3935    0.0000 N   0  0
   -4.3762   -0.6678    0.0000 C   0  0
   -3.6560   -1.0773    0.0000 C   0  0
   -2.9398   -0.6576    0.0000 C   0  0
   -2.9483    0.1758    0.0000 C   0  0
   -3.6690    0.5816    0.0000 C   0  0
   -5.0884   -1.0842    0.0000 F   0  0
   -2.2220   -1.0642    0.0000 F   0  0
  9 10  1  0
 10  1  2  0
  1 11  1  0
 11 12  2  0
 12  8  1  0
  5 13  1  0
 13 14  1  0
 14 15  1  0
 15 16  2  0
 16 17  1  0
 17 13  2  0
 15 18  1  0
 18 19  1  0
 18 20  1  0
  1  2  1  0
  2  3  2  0
  2  4  2  0
  2  5  1  0
 23 21  1  0
 21 22  2  0
 21 24  1  0
 24  6  1  0
  6  7  1  0
  7  8  1  0
  8  9  2  0
 23 25  2  0
 25 26  1  0
 26 27  2  0
 27 28  1  0
 28 29  2  0
 29 23  1  0
 25 30  1  0
 27 31  1  0
M  END
>  <ID_NEW>
CPDPP3322

>  <pEC50>
6.267188848960627

$$$$

  SciTegic12180813042D

 31 33  0  0  0  0            999 V2000
   -2.3221    2.8601    0.0000 C   0  0
   -1.7518    3.2249    0.0000 S   0  0
   -1.3856    2.6554    0.0000 O   0  0
   -2.1181    3.7981    0.0000 O   0  0
   -1.1798    3.5943    0.0000 N   0  0
   -4.6664    2.1654    0.0000 C   0  0
   -4.0780    1.8289    0.0000 C   0  0
   -3.4916    2.1716    0.0000 C   0  0
   -2.9025    1.8339    0.0000 C   0  0
   -2.3165    2.1801    0.0000 C   0  0
   -2.9155    3.1922    0.0000 C   0  0
   -3.4985    2.8478    0.0000 C   0  0
   -0.5744    3.2853    0.0000 C   0  0
   -0.4737    2.6122    0.0000 S   0  0
    0.1992    2.5070    0.0000 C   0  0
    0.5082    3.1123    0.0000 N   0  0
    0.0256    3.5924    0.0000 N   0  0
    0.5060    1.9005    0.0000 C   0  0
    0.1348    1.3301    0.0000 C   0  0
    1.1840    1.8644    0.0000 C   0  0
   -5.8269    0.1218    0.0000 C   0  0
   -5.2397   -0.2190    0.0000 C   0  0
   -5.2468    1.1394    0.0000 C   0  0
   -5.8313    0.7976    0.0000 N   0  0
   -4.6549    0.8048    0.0000 C   0  0
   -4.6543    0.1205    0.0000 C   0  0
   -5.2529    1.8185    0.0000 N   0  0
   -3.9924    0.8921    0.0000 C   0  0
   -3.4629    0.8329    0.0000 F   0  0
   -3.7444    0.4223    0.0000 F   0  0
   -3.5577    1.3933    0.0000 F   0  0
  9 10  1  0
 10  1  2  0
  1 11  1  0
 11 12  2  0
 12  8  1  0
  5 13  1  0
 13 14  1  0
 14 15  1  0
 15 16  2  0
 16 17  1  0
 17 13  2  0
 15 18  1  0
 18 19  1  0
 18 20  1  0
  1  2  1  0
  2  3  2  0
  2  4  2  0
  2  5  1  0
 21 22  2  0
 22 26  1  0
 25 23  1  0
 23 24  2  0
 24 21  1  0
 25 26  2  0
 23 27  1  0
 27  6  1  0
  6  7  1  0
  7  8  1  0
  8  9  2  0
 28 29  1  0
 28 30  1  0
 28 31  1  0
 25 28  1  0
M  END
>  <ID_NEW>
CPDPP3323

>  <pEC50>
6.259542963484978

$$$$

  -MTS-   10172316532D 0   0.00000     0.00000     0

 37 40  0  0  1  0  0  0  0  0999 V2000
    2.6350    2.3410    0.0000 C   0  0  0  0  0  0  0  0  0  0  0  0
    2.6380    1.7010    0.0000 S   0  0  0  0  0  0  0  0  0  0  0  0
    3.2470    2.5460    0.0000 N   0  0  0  0  0  0  0  0  0  0  0  0
    3.6220    2.0360    0.0000 N   0  0  0  0  0  0  0  0  0  0  0  0
    3.2550    1.5110    0.0000 C   0  0  0  0  0  0  0  0  0  0  0  0
    3.4690    0.9030    0.0000 C   0  0  0  0  0  0  0  0  0  0  0  0
    3.0510    0.4200    0.0000 C   0  0  0  0  0  0  0  0  0  0  0  0
    4.0930    0.7880    0.0000 C   0  0  0  0  0  0  0  0  0  0  0  0
    2.0710    2.6610    0.0000 N   0  0  0  0  0  0  0  0  0  0  0  0
    1.5180    2.3320    0.0000 S   0  0  0  0  0  0  0  0  0  0  0  0
    0.9560    2.0030    0.0000 C   0  0  0  0  0  0  0  0  0  0  0  0
    1.1880    2.8890    0.0000 O   0  0  0  0  0  0  0  0  0  0  0  0
    1.8430    1.7700    0.0000 O   0  0  0  0  0  0  0  0  0  0  0  0
    0.9560    1.3630    0.0000 C   0  0  0  0  0  0  0  0  0  0  0  0
    0.4010    2.3260    0.0000 C   0  0  0  0  0  0  0  0  0  0  0  0
    0.4020    1.0400    0.0000 C   0  0  0  0  0  0  0  0  0  0  0  0
   -0.1540    1.3630    0.0000 C   0  0  0  0  0  0  0  0  0  0  0  0
   -0.1520    2.0030    0.0000 C   0  0  0  0  0  0  0  0  0  0  0  0
   -0.7630    2.2030    0.0000 C   0  0  0  0  0  0  0  0  0  0  0  0
   -1.1360    1.6860    0.0000 C   0  0  1  0  0  0  0  0  0  0  0  0
   -0.7620    1.1670    0.0000 C   0  0  0  0  0  0  0  0  0  0  0  0
    1.5200    1.0400    0.0000 Cl  0  0  0  0  0  0  0  0  0  0  0  0
   -1.7780    1.6920    0.0000 N   0  0  0  0  0  0  0  0  0  0  0  0
   -2.3290    2.0230    0.0000 C   0  0  0  0  0  0  0  0  0  0  0  0
   -2.3240    2.6680    0.0000 O   0  0  0  0  0  0  0  0  0  0  0  0
   -4.0160    2.9860    0.0000 C   0  0  0  0  0  0  0  0  0  0  0  0
   -4.5730    2.6630    0.0000 C   0  0  0  0  0  0  0  0  0  0  0  0
   -4.5710    2.0210    0.0000 C   0  0  0  0  0  0  0  0  0  0  0  0
   -4.0060    1.6990    0.0000 C   0  0  0  0  0  0  0  0  0  0  0  0
   -3.4540    2.0280    0.0000 C   0  0  0  0  0  0  0  0  0  0  0  0
   -3.4600    2.6690    0.0000 C   0  0  0  0  0  0  0  0  0  0  0  0
   -5.1430    2.9800    0.0000 C   0  0  0  0  0  0  0  0  0  0  0  0
   -2.8960    1.7010    0.0000 N   0  0  0  0  0  0  0  0  0  0  0  0
   -5.7080    3.2980    0.0000 F   0  0  0  0  0  0  0  0  0  0  0  0
   -4.8250    3.5470    0.0000 F   0  0  0  0  0  0  0  0  0  0  0  0
   -5.4600    2.4180    0.0000 F   0  0  0  0  0  0  0  0  0  0  0  0
   -3.9950    1.0520    0.0000 Cl  0  0  0  0  0  0  0  0  0  0  0  0
 10  9  1  0  0  0  0
 14 11  2  0  0  0  0
 11 15  1  0  0  0  0
 15 18  2  0  0  0  0
 17 16  2  0  0  0  0
 16 14  1  0  0  0  0
 17 18  1  0  0  0  0
 18 19  1  0  0  0  0
 19 20  1  0  0  0  0
 20 21  1  0  0  0  0
 21 17  1  0  0  0  0
 20 23  1  1  0  0  0
 14 22  1  0  0  0  0
 10 13  2  0  0  0  0
 11 10  1  0  0  0  0
 10 12  2  0  0  0  0
  2  5  1  0  0  0  0
  4  3  1  0  0  0  0
  3  1  2  0  0  0  0
  4  5  2  0  0  0  0
  5  6  1  0  0  0  0
  6  7  1  0  0  0  0
  6  8  1  0  0  0  0
  9  1  1  0  0  0  0
  1  2  1  0  0  0  0
 23 24  1  0  0  0  0
 24 33  1  0  0  0  0
 24 25  2  0  0  0  0
 26 27  2  0  0  0  0
 27 28  1  0  0  0  0
 28 29  2  0  0  0  0
 29 30  1  0  0  0  0
 30 31  2  0  0  0  0
 31 26  1  0  0  0  0
 27 32  1  0  0  0  0
 30 33  1  0  0  0  0
 32 34  1  0  0  0  0
 32 35  1  0  0  0  0
 32 36  1  0  0  0  0
 29 37  1  0  0  0  0
M  END
>  <ID_NEW>
CPDPP3324

>  <pEC50>
6.258028298559266

$$$$

  SciTegic12180812512D

 31 34  0  0  0  0            999 V2000
    0.5681   -3.1916    0.0000 C   0  0
    0.5693   -4.0190    0.0000 C   0  0
    1.2794   -4.4318    0.0000 C   0  0
    1.2812   -2.7788    0.0000 C   0  0
    2.7988   -4.2726    0.0000 O   0  0
    3.2807   -3.5951    0.0000 C   0  0
    2.7837   -2.9247    0.0000 C   0  0
    1.9992   -3.1880    0.0000 C   0  0
    2.0015   -4.0211    0.0000 C   0  0
    4.1110   -3.5890    0.0000 C   0  0
   10.4858   -5.1281    0.0000 N   0  0
   11.0768   -4.5525    0.0000 N   0  0
   10.7136   -3.8116    0.0000 C   0  0
    9.8946   -3.9299    0.0000 S   0  0
    9.7578   -4.7425    0.0000 C   0  0
    9.0180   -5.1076    0.0000 N   0  0
   11.0989   -3.0820    0.0000 C   0  0
   11.9233   -3.0509    0.0000 C   0  0
   10.6597   -2.3836    0.0000 C   0  0
    6.0836   -5.6198    0.0000 C   0  0
    6.9088   -5.6801    0.0000 C   0  0
    7.3717   -4.9966    0.0000 C   0  0
    7.0106   -4.2525    0.0000 C   0  0
    6.1820   -4.1959    0.0000 C   0  0
    5.7228   -4.8802    0.0000 C   0  0
    4.8998   -4.8237    0.0000 O   0  0
    8.1946   -5.0558    0.0000 S   0  0
    8.2506   -4.2364    0.0000 O   0  0
    8.1327   -5.8822    0.0000 O   0  0
   -0.1500   -2.7750    0.0000 O   0  0
   -0.1542   -1.9500    0.0000 C   0  0
  1  2  2  0
  2  3  1  0
  3  9  2  0
  8  4  2  0
  4  1  1  0
  8  9  1  0
  6  7  2  0
  5  6  1  0
  7  8  1  0
  9  5  1  0
  6 10  1  0
 11 12  1  0
 12 13  2  0
 13 14  1  0
 14 15  1  0
 15 11  2  0
 15 16  1  0
 13 17  1  0
 17 18  1  0
 17 19  1  0
 20 21  2  0
 21 22  1  0
 22 23  2  0
 23 24  1  0
 24 25  2  0
 25 20  1  0
 25 26  1  0
 22 27  1  0
 27 28  2  0
 27 29  2  0
 27 16  1  0
 10 26  1  0
  1 30  1  0
 30 31  1  0
M  END
>  <ID_NEW>
CPDPP3325

>  <pEC50>
6.250091473965109

$$$$

  SciTegic12180813092D

 33 35  0  0  0  0            999 V2000
   -3.8149    2.1563    0.0000 C   0  0
   -4.4002    2.5004    0.0000 C   0  0
   -4.4007    1.1420    0.0000 C   0  0
   -3.8143    1.4805    0.0000 N   0  0
   -4.9907    1.4799    0.0000 C   0  0
   -4.9875    2.1642    0.0000 C   0  0
   -4.3984    0.4629    0.0000 N   0  0
   -4.3962    3.1795    0.0000 C   0  0
   -4.3941    3.7995    0.0000 F   0  0
   -3.8451    3.6267    0.0000 F   0  0
   -4.9453    3.6332    0.0000 F   0  0
   -5.5791    1.1407    0.0000 Cl  0  0
   -0.8763    1.1559    0.0000 C   0  0
   -0.3060    1.5207    0.0000 S   0  0
    0.0602    0.9512    0.0000 O   0  0
   -0.6723    2.0939    0.0000 O   0  0
    0.2660    1.8901    0.0000 N   0  0
   -3.2211    0.4638    0.0000 C   0  0
   -2.6322    0.1247    0.0000 C   0  0
   -2.0458    0.4674    0.0000 C   0  0
   -1.4567    0.1297    0.0000 C   0  0
   -0.8707    0.4759    0.0000 C   0  0
   -1.4697    1.4880    0.0000 C   0  0
   -2.0527    1.1436    0.0000 C   0  0
    0.8714    1.5811    0.0000 C   0  0
    0.9721    0.9080    0.0000 S   0  0
    1.6450    0.8028    0.0000 C   0  0
    1.9540    1.4081    0.0000 N   0  0
    1.4714    1.8882    0.0000 N   0  0
    1.9518    0.1963    0.0000 C   0  0
    1.5806   -0.3741    0.0000 C   0  0
    2.6298    0.1602    0.0000 C   0  0
   -3.8113    0.1266    0.0000 C   0  0
  1  2  2  0
  2  6  1  0
  5  3  1  0
  3  4  2  0
  4  1  1  0
  5  6  2  0
  3  7  1  0
  2  8  1  0
  8  9  1  0
  8 10  1  0
  8 11  1  0
  5 12  1  0
 21 22  1  0
 22 13  2  0
 13 23  1  0
 23 24  2  0
 24 20  1  0
 17 25  1  0
 25 26  1  0
 26 27  1  0
 27 28  2  0
 28 29  1  0
 29 25  2  0
 27 30  1  0
 30 31  1  0
 30 32  1  0
 13 14  1  0
 14 15  2  0
 14 16  2  0
 14 17  1  0
 18 19  1  0
 19 20  1  0
 20 21  2  0
 18 33  1  0
 33  7  1  0
M  END
>  <ID_NEW>
CPDPP3326

>  <pEC50>
6.247465268480945

$$$$

  -MTS-   10172316532D 0   0.00000     0.00000     0

 35 38  0  0  1  0  0  0  0  0999 V2000
   -2.8000   -4.9250    0.0000 C   0  0  0  0  0  0  0  0  0  0  0  0
   -3.0250   -4.0870    0.0000 C   0  0  2  0  0  0  0  0  0  0  0  0
   -3.8640   -3.8630    0.0000 C   0  0  0  0  0  0  0  0  0  0  0  0
   -4.4820   -4.4760    0.0000 C   0  0  0  0  0  0  0  0  0  0  0  0
   -4.2570   -5.3180    0.0000 C   0  0  1  0  0  0  0  0  0  0  0  0
   -3.4100   -5.5430    0.0000 C   0  0  0  0  0  0  0  0  0  0  0  0
   -4.8630   -5.9300    0.0000 C   0  0  0  0  0  0  0  0  0  0  0  0
   -2.4150   -3.4700    0.0000 C   0  0  0  0  0  0  0  0  0  0  0  0
   -1.5540   -3.6030    0.0000 N   0  0  0  0  0  0  0  0  0  0  0  0
   -1.1590   -2.8300    0.0000 C   0  0  0  0  0  0  0  0  0  0  0  0
   -1.7760   -2.2150    0.0000 C   0  0  0  0  0  0  0  0  0  0  0  0
   -2.5520   -2.6090    0.0000 S   0  0  0  0  0  0  0  0  0  0  0  0
   -0.3040   -2.6930    0.0000 C   0  0  0  0  0  0  0  0  0  0  0  0
   -1.6380   -1.3590    0.0000 C   0  0  2  0  0  0  0  0  0  0  0  0
   -0.8320   -1.0480    0.0000 O   0  0  0  0  0  0  0  0  0  0  0  0
   -4.6440   -6.7680    0.0000 F   0  0  0  0  0  0  0  0  0  0  0  0
   -5.7080   -5.7080    0.0000 F   0  0  0  0  0  0  0  0  0  0  0  0
   -3.9960   -5.9290    0.0000 F   0  0  0  0  0  0  0  0  0  0  0  0
   -0.6980   -0.1880    0.0000 C   0  0  0  0  0  0  0  0  0  0  0  0
    0.1150    0.1180    0.0000 C   0  0  0  0  0  0  0  0  0  0  0  0
    0.2490    0.9730    0.0000 C   0  0  0  0  0  0  0  0  0  0  0  0
   -0.4280    1.5190    0.0000 C   0  0  0  0  0  0  0  0  0  0  0  0
   -1.2390    1.2020    0.0000 C   0  0  0  0  0  0  0  0  0  0  0  0
   -1.3670    0.3490    0.0000 C   0  0  0  0  0  0  0  0  0  0  0  0
   -2.1760    0.0330    0.0000 F   0  0  0  0  0  0  0  0  0  0  0  0
    1.0560    1.2840    0.0000 O   0  0  0  0  0  0  0  0  0  0  0  0
    1.7320    0.7430    0.0000 C   0  0  0  0  0  0  0  0  0  0  0  0
   -0.2920    2.3760    0.0000 C   0  0  0  0  0  0  0  0  0  0  0  0
   -0.1600    3.2370    0.0000 N   0  0  0  0  0  0  0  0  0  0  0  0
    0.6500    3.5490    0.0000 O   0  0  0  0  0  0  0  0  0  0  0  0
    0.5650    2.2440    0.0000 N   0  0  0  0  0  0  0  0  0  0  0  0
   -2.3150   -0.8140    0.0000 C   0  0  0  0  0  0  0  0  0  0  0  0
   -3.1540   -1.0370    0.0000 C   0  0  0  0  0  0  0  0  0  0  0  0
    1.1710    2.8580    0.0000 C   0  0  0  0  0  0  0  0  0  0  0  0
    2.0080    2.6380    0.0000 O   0  0  0  0  0  0  0  0  0  0  0  0
  3  4  1  0  0  0  0
  7 17  1  0  0  0  0
  4  5  1  0  0  0  0
  7 18  1  0  0  0  0
  5  6  1  0  0  0  0
 15 19  1  0  0  0  0
 19 20  2  0  0  0  0
  5  7  1  1  0  0  0
 20 21  1  0  0  0  0
  1  2  1  0  0  0  0
 21 22  2  0  0  0  0
  2  8  1  6  0  0  0
 22 23  1  0  0  0  0
  8  9  2  0  0  0  0
 23 24  2  0  0  0  0
 24 19  1  0  0  0  0
 24 25  1  0  0  0  0
 21 26  1  0  0  0  0
 26 27  1  0  0  0  0
 22 28  1  0  0  0  0
  9 10  1  0  0  0  0
 28 29  2  0  0  0  0
 10 11  2  0  0  0  0
 29 30  1  0  0  0  0
 11 12  1  0  0  0  0
 28 31  1  0  0  0  0
 12  8  1  0  0  0  0
 10 13  1  0  0  0  0
 11 14  1  0  0  0  0
  1  6  1  0  0  0  0
 14 15  1  0  0  0  0
  2  3  1  0  0  0  0
  7 16  1  0  0  0  0
 14 32  1  1  0  0  0
 32 33  1  0  0  0  0
 31 34  1  0  0  0  0
 34 35  2  0  0  0  0
 34 30  1  0  0  0  0
M  END
>  <ID_NEW>
CPDPP3327

>  <pEC50>
6.242114929764141

$$$$

  -MTS-   10172316532D 0   0.00000     0.00000     0

 38 41  0  0  1  0  0  0  0  0999 V2000
    0.7100    1.6750    0.0000 C   0  0  0  0  0  0  0  0  0  0  0  0
    1.1140    2.3950    0.0000 C   0  0  0  0  0  0  0  0  0  0  0  0
   -0.1130    1.6650    0.0000 C   0  0  0  0  0  0  0  0  0  0  0  0
    1.1290    0.9690    0.0000 C   0  0  0  0  0  0  0  0  0  0  0  0
    0.6930    3.1030    0.0000 C   0  0  0  0  0  0  0  0  0  0  0  0
    1.9350    2.4070    0.0000 C   0  0  0  0  0  0  0  0  0  0  0  0
   -0.5390    2.3740    0.0000 C   0  0  2  0  0  0  0  0  0  0  0  0
    1.9540    0.9780    0.0000 C   0  0  0  0  0  0  0  0  0  0  0  0
   -0.1360    3.0950    0.0000 C   0  0  0  0  0  0  0  0  0  0  0  0
    2.3580    1.6990    0.0000 C   0  0  0  0  0  0  0  0  0  0  0  0
   -1.3670    2.3670    0.0000 N   0  0  0  0  0  0  0  0  0  0  0  0
    2.3830    0.2650    0.0000 S   0  0  0  0  0  0  0  0  0  0  0  0
    1.6700   -0.1610    0.0000 O   0  0  0  0  0  0  0  0  0  0  0  0
    3.0940    0.6930    0.0000 O   0  0  0  0  0  0  0  0  0  0  0  0
    2.8130   -0.4450    0.0000 N   0  0  0  0  0  0  0  0  0  0  0  0
    3.6380   -0.4280    0.0000 C   0  0  0  0  0  0  0  0  0  0  0  0
    4.1380   -1.0810    0.0000 N   0  0  0  0  0  0  0  0  0  0  0  0
    4.9180   -0.8100    0.0000 N   0  0  0  0  0  0  0  0  0  0  0  0
    4.9010    0.0150    0.0000 C   0  0  0  0  0  0  0  0  0  0  0  0
    4.1110    0.2530    0.0000 S   0  0  0  0  0  0  0  0  0  0  0  0
    5.5580    0.5130    0.0000 C   0  0  0  0  0  0  0  0  0  0  0  0
    6.3180    0.1940    0.0000 C   0  0  0  0  0  0  0  0  0  0  0  0
    5.4540    1.3320    0.0000 C   0  0  0  0  0  0  0  0  0  0  0  0
   -1.7860    3.0780    0.0000 C   0  0  0  0  0  0  0  0  0  0  0  0
   -2.6140    3.0710    0.0000 C   0  0  0  0  0  0  0  0  0  0  0  0
   -3.0190    2.3520    0.0000 C   0  0  0  0  0  0  0  0  0  0  0  0
   -3.8360    2.3430    0.0000 C   0  0  0  0  0  0  0  0  0  0  0  0
   -4.2600    3.0530    0.0000 C   0  0  0  0  0  0  0  0  0  0  0  0
   -3.8480    3.7740    0.0000 C   0  0  0  0  0  0  0  0  0  0  0  0
   -3.0290    3.7810    0.0000 C   0  0  0  0  0  0  0  0  0  0  0  0
   -1.3790    3.7960    0.0000 O   0  0  0  0  0  0  0  0  0  0  0  0
   -2.5960    1.6440    0.0000 O   0  0  0  0  0  0  0  0  0  0  0  0
   -5.0850    3.0450    0.0000 C   0  0  0  0  0  0  0  0  0  0  0  0
   -5.8300    3.0410    0.0000 F   0  0  0  0  0  0  0  0  0  0  0  0
   -5.6240    2.3740    0.0000 F   0  0  0  0  0  0  0  0  0  0  0  0
   -5.6310    3.7110    0.0000 F   0  0  0  0  0  0  0  0  0  0  0  0
   -1.7710    1.6550    0.0000 C   0  0  0  0  0  0  0  0  0  0  0  0
   -1.3480    0.9460    0.0000 C   0  0  0  0  0  0  0  0  0  0  0  0
  2  6  1  0  0  0  0
  3  7  1  0  0  0  0
  4  8  2  0  0  0  0
  5  9  1  0  0  0  0
  6 10  2  0  0  0  0
  7 11  1  1  0  0  0
  7  9  1  0  0  0  0
  8 10  1  0  0  0  0
  8 12  1  0  0  0  0
 12 13  2  0  0  0  0
 12 14  2  0  0  0  0
 12 15  1  0  0  0  0
  1  2  2  0  0  0  0
  1  3  1  0  0  0  0
  1  4  1  0  0  0  0
  2  5  1  0  0  0  0
 15 16  1  0  0  0  0
 16 17  2  0  0  0  0
 17 18  1  0  0  0  0
 18 19  2  0  0  0  0
 19 20  1  0  0  0  0
 20 16  1  0  0  0  0
 19 21  1  0  0  0  0
 21 22  1  0  0  0  0
 21 23  1  0  0  0  0
 11 24  1  0  0  0  0
 24 25  1  0  0  0  0
 25 26  2  0  0  0  0
 26 27  1  0  0  0  0
 27 28  2  0  0  0  0
 28 29  1  0  0  0  0
 29 30  2  0  0  0  0
 30 25  1  0  0  0  0
 24 31  2  0  0  0  0
 26 32  1  0  0  0  0
 28 33  1  0  0  0  0
 33 34  1  0  0  0  0
 33 35  1  0  0  0  0
 33 36  1  0  0  0  0
 32 37  1  0  0  0  0
 37 38  1  0  0  0  0
M  END
>  <ID_NEW>
CPDPP3328

>  <pEC50>
6.229059906393155

$$$$

  SciTegic12180813032D

 31 34  0  0  0  0            999 V2000
   -4.3224    1.5796    0.0000 C   0  0
   -4.6975    0.7730    0.0000 C   0  0
   -4.1891    0.0499    0.0000 C   0  0
   -3.3052    0.1293    0.0000 C   0  0
   -2.9339    0.9315    0.0000 C   0  0
   -3.4423    1.6546    0.0000 C   0  0
   -5.5773    0.6939    0.0000 Cl  0  0
   -2.0541    1.0105    0.0000 C   0  0
   -1.4727    0.3422    0.0000 N   0  0
   -0.6571    0.6883    0.0000 C   0  0
   -0.7366    1.5723    0.0000 S   0  0
   -1.5970    1.7721    0.0000 C   0  0
    0.1000    0.2351    0.0000 N   0  0
    0.8765    0.6664    0.0000 C   0  0
    1.6336    0.2132    0.0000 C   0  0
    2.4060    0.6441    0.0000 C   0  0
    3.1676    0.1871    0.0000 C   0  0
    3.9400    0.6181    0.0000 C   0  0
    3.9552    1.5022    0.0000 C   0  0
    3.1977    1.9596    0.0000 C   0  0
    2.4212    1.5283    0.0000 C   0  0
    4.7317    1.9335    0.0000 C   0  0
    0.8419   -1.1024    0.0000 C   0  0
    0.0847   -0.6491    0.0000 C   0  0
    0.8266   -1.9865    0.0000 O   0  0
    1.5837   -2.4398    0.0000 C   0  0
    5.5363    1.5644    0.0000 N   0  0
    6.1415    2.2146    0.0000 O   0  0
    5.7102    2.9911    0.0000 C   0  0
    4.8385    2.8207    0.0000 N   0  0
    6.0848    3.7965    0.0000 O   0  0
 15 16  1  0
 16 17  2  0
  5  8  1  0
 17 18  1  0
  8  9  1  0
 18 19  2  0
  3  4  2  0
 19 20  1  0
  1  2  2  0
 20 21  2  0
 21 16  1  0
  4  5  1  0
 19 22  1  0
  9 10  2  0
 10 11  1  0
 11 12  1  0
 12  8  2  0
  5  6  2  0
 23 24  1  0
 23 25  1  0
 25 26  1  0
 13 24  1  0
 10 13  1  0
  6  1  1  0
 13 14  1  0
  2  3  1  0
 14 15  1  0
  2  7  1  0
 22 27  2  0
 27 28  1  0
 28 29  1  0
 29 30  1  0
 30 22  1  0
 29 31  2  0
M  END
>  <ID_NEW>
CPDPP3329

>  <pEC50>
6.225554939534343

$$$$

  SciTegic12180812472D

 33 36  0  0  0  0            999 V2000
    5.4583    1.9875    0.0000 N   0  0
    6.2833    1.9875    0.0000 N   0  0
    6.5401    2.7716    0.0000 C   0  0
    5.8708    3.2583    0.0000 S   0  0
    5.2058    2.7716    0.0000 C   0  0
    4.4210    3.0262    0.0000 N   0  0
    7.3251    3.0254    0.0000 C   0  0
    7.9374    2.4726    0.0000 C   0  0
    7.4977    3.8322    0.0000 C   0  0
    0.4736    1.8224    0.0000 O   0  0
    1.2626    2.0637    0.0000 C   0  0
    1.8646    1.4981    0.0000 C   0  0
    2.6529    1.7388    0.0000 C   0  0
    2.8391    2.5434    0.0000 C   0  0
    2.2308    3.1070    0.0000 C   0  0
    1.4448    2.8633    0.0000 C   0  0
    3.6277    2.7858    0.0000 S   0  0
    3.5116    3.6051    0.0000 O   0  0
    3.7340    1.9677    0.0000 O   0  0
   -0.1339    2.3855    0.0000 C   0  0
   -3.6878    0.5300    0.0000 C   0  0
   -4.4014    1.7708    0.0000 C   0  0
   -4.4026    0.9435    0.0000 C   0  0
   -2.9713    0.9439    0.0000 C   0  0
   -2.9742    1.7745    0.0000 C   0  0
   -3.6896    2.1836    0.0000 C   0  0
   -2.2613    2.1897    0.0000 C   0  0
   -1.5044    1.8534    0.0000 N   0  0
   -0.9547    2.4686    0.0000 C   0  0
   -1.3699    3.1816    0.0000 C   0  0
   -2.1762    3.0069    0.0000 O   0  0
   -5.1175    0.5318    0.0000 O   0  0
   -5.8315    0.9451    0.0000 C   0  0
  5  6  1  0
  3  7  1  0
  7  8  1  0
  7  9  1  0
  1  2  1  0
 20 10  1  0
 10 11  1  0
 11 12  2  0
 12 13  1  0
 13 14  2  0
 14 15  1  0
 15 16  2  0
 16 11  1  0
 14 17  1  0
 17 18  2  0
 17 19  2  0
 22 23  2  0
 23 21  1  0
 21 24  2  0
 24 25  1  0
 25 26  2  0
 26 22  1  0
 25 27  1  0
 27 28  2  0
 28 29  1  0
 29 30  2  0
 30 31  1  0
 31 27  1  0
 29 20  1  0
 23 32  1  0
 32 33  1  0
 17  6  1  0
  2  3  2  0
  3  4  1  0
  4  5  1  0
  5  1  2  0
M  END
>  <ID_NEW>
CPDPP3330

>  <pEC50>
6.212199893414289

$$$$

  SciTegic12180813072D

 31 33  0  0  0  0            999 V2000
   -3.4251    3.8315    0.0000 C   0  0
   -2.7075    3.4132    0.0000 C   0  0
   -2.7047    2.5907    0.0000 C   0  0
   -1.9921    2.1765    0.0000 C   0  0
   -1.2756    2.5914    0.0000 C   0  0
   -1.2762    3.4166    0.0000 C   0  0
   -1.9936    3.8270    0.0000 C   0  0
   -0.5542    2.1706    0.0000 S   0  0
   -0.9761    1.4498    0.0000 N   0  0
    0.1648    1.7490    0.0000 O   0  0
   -0.1347    2.8883    0.0000 O   0  0
   -0.5662    0.7281    0.0000 C   0  0
   -0.8173   -0.0544    0.0000 S   0  0
   -0.1480   -0.5393    0.0000 C   0  0
    0.5154   -0.0585    0.0000 N   0  0
    0.2597    0.7218    0.0000 N   0  0
   -0.1425   -1.3642    0.0000 C   0  0
   -0.8573   -1.7769    0.0000 C   0  0
    0.5737   -1.7763    0.0000 C   0  0
   -4.1448    3.4207    0.0000 N   0  0
   -4.1460    2.5977    0.0000 C   0  0
   -4.8622    2.1860    0.0000 C   0  0
   -4.8628    1.3618    0.0000 C   0  0
   -4.1479    0.9483    0.0000 C   0  0
   -3.4310    1.3650    0.0000 C   0  0
   -3.4339    2.1879    0.0000 N   0  0
   -5.5762    2.5995    0.0000 Cl  0  0
   -4.1437    0.1214    0.0000 C   0  0
   -4.1429   -0.6292    0.0000 F   0  0
   -4.8115   -0.4240    0.0000 F   0  0
   -3.4749   -0.4226    0.0000 F   0  0
  4  5  2  0
  5  6  1  0
  6  7  2  0
  7  2  1  0
  8  9  1  0
  8 10  2  0
  5  8  1  0
  8 11  2  0
  9 12  1  0
 12 13  1  0
 13 14  1  0
 14 15  2  0
 15 16  1  0
 16 12  2  0
 14 17  1  0
 17 18  1  0
 17 19  1  0
  1  2  1  0
  2  3  2  0
  3  4  1  0
  1 20  1  0
 21 22  2  0
 22 23  1  0
 23 24  2  0
 24 25  1  0
 25 26  2  0
 26 21  1  0
 20 21  1  0
 22 27  1  0
 28 29  1  0
 28 30  1  0
 28 31  1  0
 24 28  1  0
M  END
>  <ID_NEW>
CPDPP3331

>  <pEC50>
6.196448262220495

$$$$

  -MTS-   10172316532D 0   0.00000     0.00000     0

 36 39  0  0  1  0  0  0  0  0999 V2000
   -3.8010    1.2670    0.0000 C   0  0  0  0  0  0  0  0  0  0  0  0
   -3.8030    0.7980    0.0000 C   0  0  0  0  0  0  0  0  0  0  0  0
   -3.4000    0.5680    0.0000 C   0  0  0  0  0  0  0  0  0  0  0  0
   -3.4020    1.4920    0.0000 C   0  0  0  0  0  0  0  0  0  0  0  0
   -3.0030    1.2660    0.0000 C   0  0  0  0  0  0  0  0  0  0  0  0
   -2.9980    0.8030    0.0000 C   0  0  0  0  0  0  0  0  0  0  0  0
   -2.5600    0.6590    0.0000 N   0  0  0  0  0  0  0  0  0  0  0  0
   -2.2870    1.0380    0.0000 C   0  0  0  0  0  0  0  0  0  0  0  0
   -2.5640    1.4100    0.0000 C   0  0  0  0  0  0  0  0  0  0  0  0
   -5.0010    1.9540    0.0000 C   0  0  0  0  0  0  0  0  0  0  0  0
   -5.0030    1.4930    0.0000 C   0  0  0  0  0  0  0  0  0  0  0  0
   -4.6000    1.2560    0.0000 C   0  0  0  0  0  0  0  0  0  0  0  0
   -4.2000    1.4940    0.0000 C   0  0  0  0  0  0  0  0  0  0  0  0
   -4.2030    1.9580    0.0000 C   0  0  0  0  0  0  0  0  0  0  0  0
   -4.6020    2.1840    0.0000 C   0  0  0  0  0  0  0  0  0  0  0  0
   -5.4020    2.1860    0.0000 C   0  0  0  0  0  0  0  0  0  0  0  0
   -5.4010    2.6490    0.0000 F   0  0  0  0  0  0  0  0  0  0  0  0
   -5.8030    1.9560    0.0000 F   0  0  0  0  0  0  0  0  0  0  0  0
   -5.8500    2.3080    0.0000 F   0  0  0  0  0  0  0  0  0  0  0  0
   -2.4160    0.2210    0.0000 S   0  0  0  0  0  0  0  0  0  0  0  0
   -1.9540    0.2250    0.0000 C   0  0  0  0  0  0  0  0  0  0  0  0
   -2.8580    0.1040    0.0000 O   0  0  0  0  0  0  0  0  0  0  0  0
   -2.4170   -0.2370    0.0000 O   0  0  0  0  0  0  0  0  0  0  0  0
   -1.7220   -0.1760    0.0000 C   0  0  0  0  0  0  0  0  0  0  0  0
   -1.2560   -0.1730    0.0000 C   0  0  0  0  0  0  0  0  0  0  0  0
   -1.0270    0.2260    0.0000 C   0  0  0  0  0  0  0  0  0  0  0  0
   -1.2620    0.6270    0.0000 C   0  0  0  0  0  0  0  0  0  0  0  0
   -1.7220    0.6240    0.0000 C   0  0  0  0  0  0  0  0  0  0  0  0
   -0.5650    0.2310    0.0000 O   0  0  0  0  0  0  0  0  0  0  0  0
   -0.3340   -0.1680    0.0000 C   0  0  0  0  0  0  0  0  0  0  0  0
    0.1290   -0.1630    0.0000 C   0  0  1  0  0  0  0  0  0  0  0  0
    0.3640   -0.5700    0.0000 O   0  0  0  0  0  0  0  0  0  0  0  0
    0.3600    0.2320    0.0000 C   0  0  0  0  0  0  0  0  0  0  0  0
    0.8180    0.2410    0.0000 F   0  0  0  0  0  0  0  0  0  0  0  0
    0.1240    0.6340    0.0000 F   0  0  0  0  0  0  0  0  0  0  0  0
    0.5920    0.6370    0.0000 F   0  0  0  0  0  0  0  0  0  0  0  0
  1  2  2  0  0  0  0
  2  3  1  0  0  0  0
  3  6  2  0  0  0  0
  5  4  2  0  0  0  0
  4  1  1  0  0  0  0
  5  6  1  0  0  0  0
  6  7  1  0  0  0  0
  7  8  1  0  0  0  0
  8  9  1  0  0  0  0
  9  5  1  0  0  0  0
 10 11  2  0  0  0  0
 11 12  1  0  0  0  0
 12 13  2  0  0  0  0
 13 14  1  0  0  0  0
 14 15  2  0  0  0  0
 15 10  1  0  0  0  0
 10 16  1  0  0  0  0
 16 17  1  0  0  0  0
 16 18  1  0  0  0  0
 16 19  1  0  0  0  0
 13  1  1  0  0  0  0
  7 20  1  0  0  0  0
 20 21  1  0  0  0  0
 20 22  2  0  0  0  0
 20 23  2  0  0  0  0
 21 24  2  0  0  0  0
 24 25  1  0  0  0  0
 25 26  2  0  0  0  0
 26 27  1  0  0  0  0
 27 28  2  0  0  0  0
 28 21  1  0  0  0  0
 26 29  1  0  0  0  0
 29 30  1  0  0  0  0
 30 31  1  0  0  0  0
 31 32  1  0  0  0  0
 31 33  1  6  0  0  0
 33 34  1  0  0  0  0
 33 35  1  0  0  0  0
 33 36  1  0  0  0  0
M  END
>  <ID_NEW>
CPDPP3332

>  <pEC50>
6.195537164809003

$$$$

  SciTegic12180813002D

 39 42  0  0  0  0            999 V2000
   -1.7937    1.4134    0.0000 C   0  0
   -1.4104    0.9168    0.0000 C   0  0
   -0.7887    1.0026    0.0000 C   0  0
   -0.5526    1.5820    0.0000 C   0  0
   -0.9411    2.0786    0.0000 C   0  0
   -1.5576    1.9920    0.0000 C   0  0
   -0.7071    2.6582    0.0000 C   0  0
   -0.0948    2.7402    0.0000 N   0  0
    0.1362    3.3197    0.0000 C   0  0
    0.7547    3.4097    0.0000 O   0  0
   -0.2499    3.8113    0.0000 O   0  0
   -0.9559    3.2326    0.0000 N   0  0
    0.0630    1.5025    0.0000 O   0  0
    0.5556    1.1252    0.0000 C   0  0
   -1.6469    0.3383    0.0000 O   0  0
   -2.2662    0.2538    0.0000 C   0  0
   -2.5027   -0.3247    0.0000 C   0  0
   -3.1104   -0.4754    0.0000 S   0  0
   -3.1566   -1.0987    0.0000 C   0  0
   -2.5780   -1.3352    0.0000 N   0  0
   -2.1744   -0.8581    0.0000 C   0  0
   -1.5512   -0.9050    0.0000 C   0  0
   -1.2802   -1.4682    0.0000 N   0  0
   -3.6880   -1.4277    0.0000 C   0  0
   -4.2373   -1.1315    0.0000 C   0  0
   -4.7684   -1.4600    0.0000 C   0  0
   -4.7495   -2.0854    0.0000 C   0  0
   -4.1950   -2.3809    0.0000 C   0  0
   -3.6663   -2.0507    0.0000 C   0  0
   -5.2804   -2.4151    0.0000 C   0  0
   -5.8314   -2.1201    0.0000 F   0  0
   -5.2604   -3.0398    0.0000 F   0  0
   -5.4615   -1.8169    0.0000 F   0  0
   -0.6570   -1.5152    0.0000 C   0  0
   -0.3860   -2.0784    0.0000 C   0  0
    0.2372   -2.1254    0.0000 O   0  0
   -1.6325   -1.9845    0.0000 C   0  0
   -1.3616   -2.5477    0.0000 C   0  0
   -1.7138   -3.0640    0.0000 O   0  0
  1  2  2  0
  2  3  1  0
  3  4  2  0
  4  5  1  0
  5  6  2  0
  6  1  1  0
  5  7  1  0
  7  8  1  0
  8  9  1  0
  9 10  2  0
  9 11  1  0
  7 12  2  0
 12 11  1  0
  4 13  1  0
 13 14  1  0
  2 15  1  0
 15 16  1  0
 16 17  1  0
 17 18  1  0
 18 19  1  0
 19 20  2  0
 20 21  1  0
 21 17  2  0
 21 22  1  0
 22 23  1  0
 19 24  1  0
 24 25  2  0
 25 26  1  0
 26 27  2  0
 27 28  1  0
 28 29  2  0
 29 24  1  0
 27 30  1  0
 30 31  1  0
 30 32  1  0
 30 33  1  0
 23 34  1  0
 34 35  1  0
 35 36  1  0
 23 37  1  0
 37 38  1  0
 38 39  1  0
M  END
>  <ID_NEW>
CPDPP3333

>  <pEC50>
6.190567003024168

$$$$

  SciTegic12180813012D

 37 39  0  0  0  0            999 V2000
   -1.6597   -4.6875    0.0000 C   0  0
   -1.6609   -5.5149    0.0000 C   0  0
   -0.9461   -5.9277    0.0000 C   0  0
   -0.2296   -5.5144    0.0000 C   0  0
   -0.2325   -4.6839    0.0000 C   0  0
   -0.9479   -4.2747    0.0000 C   0  0
    0.4855   -5.9258    0.0000 O   0  0
    0.4804   -4.2687    0.0000 C   0  0
    0.4773   -3.4437    0.0000 O   0  0
    0.4868   -6.7508    0.0000 C   0  0
   -2.3757   -5.9268    0.0000 C   0  0
   -3.0898   -5.5137    0.0000 F   0  0
   -2.3763   -6.7518    0.0000 F   0  0
   -2.5886   -5.1298    0.0000 F   0  0
    1.2019   -7.1621    0.0000 C   0  0
    3.5235   -3.5333    0.0000 C   0  0
    3.5224   -4.3606    0.0000 C   0  0
    4.2372   -4.7735    0.0000 C   0  0
    4.9536   -4.3602    0.0000 C   0  0
    4.9508   -3.5296    0.0000 C   0  0
    4.2354   -3.1205    0.0000 C   0  0
    2.8076   -4.7726    0.0000 C   0  0
    2.0875   -4.3583    0.0000 C   0  0
    1.3708   -4.7666    0.0000 N   0  0
    2.8089   -3.1210    0.0000 C   0  0
    5.8595   -4.5769    0.0000 S   0  0
    5.8564   -3.7519    0.0000 O   0  0
    6.0760   -5.3730    0.0000 O   0  0
    8.3124   -4.5291    0.0000 S   0  0
    8.9817   -4.0466    0.0000 C   0  0
    8.7249   -3.2583    0.0000 N   0  0
    7.8999   -3.2583    0.0000 N   0  0
    7.6431   -4.0466    0.0000 C   0  0
    6.8589   -4.3027    0.0000 N   0  0
    9.7660   -4.3027    0.0000 C   0  0
    9.9363   -5.1099    0.0000 C   0  0
   10.3799   -3.7516    0.0000 C   0  0
  2 11  1  0
  7 10  1  0
 11 12  1  0
 11 13  1  0
  3  4  2  0
 11 14  1  0
  4  7  1  0
  5  8  1  0
 10 15  1  0
  4  5  1  0
  2  3  1  0
  8  9  2  0
  5  6  2  0
  6  1  1  0
  1  2  2  0
 16 25  1  0
 21 16  1  0
 16 17  2  0
 17 22  1  0
 18 19  2  0
 22 23  1  0
 23 24  1  0
 19 20  1  0
 17 18  1  0
 20 21  2  0
 26 27  2  0
 26 28  2  0
 31 32  1  0
 33 29  1  0
 33 34  1  0
 32 33  2  0
 30 35  1  0
 30 31  2  0
 29 30  1  0
 26 34  1  0
 35 36  1  0
 35 37  1  0
 19 26  1  0
  8 24  1  0
M  END
>  <ID_NEW>
CPDPP3334

>  <pEC50>
6.1791227793404735

$$$$

  SciTegic12180812502D

 34 37  0  0  0  0            999 V2000
   -2.5556   -4.8042    0.0000 C   0  0
   -2.5568   -5.6316    0.0000 C   0  0
   -1.8420   -6.0445    0.0000 C   0  0
   -1.1255   -5.6311    0.0000 C   0  0
   -1.1284   -4.8006    0.0000 C   0  0
   -1.8438   -4.3915    0.0000 C   0  0
   -3.2716   -6.0435    0.0000 C   0  0
   -3.9857   -5.6305    0.0000 F   0  0
   -3.4845   -5.2465    0.0000 F   0  0
   -0.4155   -4.3854    0.0000 C   0  0
    0.3372   -4.7198    0.0000 N   0  0
    0.8869   -4.1046    0.0000 C   0  0
    0.4717   -3.3916    0.0000 C   0  0
   -0.3346   -3.5663    0.0000 S   0  0
    0.8044   -2.6367    0.0000 C   0  0
    1.5958   -4.5168    0.0000 C   0  0
    1.5933   -5.3418    0.0000 C   0  0
    2.3115   -4.1065    0.0000 C   0  0
    1.0107   -5.0984    0.0000 C   0  0
   -3.2750   -6.6168    0.0000 F   0  0
    1.6245   -2.5473    0.0000 N   0  0
    2.1739   -3.1573    0.0000 C   0  0
    2.9263   -2.8189    0.0000 C   0  0
    2.0293   -1.8304    0.0000 C   0  0
    2.8361   -2.0006    0.0000 C   0  0
    3.3848   -1.3878    0.0000 C   0  0
    3.1281   -0.6046    0.0000 C   0  0
    2.3175   -0.4376    0.0000 C   0  0
    1.7723   -1.0517    0.0000 C   0  0
    3.6774    0.0109    0.0000 O   0  0
    4.4851   -0.1570    0.0000 C   0  0
    5.0344    0.4585    0.0000 C   0  0
    5.8421    0.2905    0.0000 O   0  0
    4.7760    1.2420    0.0000 O   0  0
  4  5  1  0
  7  9  1  0
 22 23  2  0
 23 25  1  0
 24 21  1  0
  2  3  1  0
  5 10  1  0
 24 25  2  0
 10 11  2  0
 25 26  1  0
  5  6  2  0
 26 27  2  0
  6  1  1  0
 27 28  1  0
  1  2  2  0
 28 29  2  0
 29 24  1  0
  2  7  1  0
 27 30  1  0
 12 16  1  0
 11 12  1  0
 12 13  2  0
 13 14  1  0
 14 10  1  0
  3  4  2  0
 16 17  1  0
 30 31  1  0
 13 15  1  0
 31 32  1  0
  7  8  1  0
 32 33  1  0
 16 18  1  0
 32 34  2  0
 16 19  1  0
  7 20  1  0
 15 21  1  0
 21 22  1  0
M  END
>  <ID_NEW>
CPDPP3335

>  <pEC50>
6.170125354275355

$$$$

  SciTegic12180813582D

 38 41  0  0  0  0            999 V2000
    0.8624   -5.0228    0.0000 C   0  0
    0.4210   -5.7226    0.0000 C   0  0
    0.8064   -6.4526    0.0000 C   0  0
    1.6330   -6.4840    0.0000 C   0  0
    2.0726   -5.7793    0.0000 C   0  0
    1.6846   -5.0522    0.0000 C   0  0
    2.8971   -5.8072    0.0000 C   0  0
    3.3562   -6.4884    0.0000 N   0  0
    4.1499   -6.2601    0.0000 C   0  0
    4.1766   -5.4344    0.0000 C   0  0
    3.3992   -5.1552    0.0000 S   0  0
    4.8009   -6.7669    0.0000 C   0  0
    4.8608   -4.9674    0.0000 C   0  0
   -0.4034   -5.6909    0.0000 C   0  0
   -0.8431   -6.3890    0.0000 F   0  0
   -0.7881   -4.9611    0.0000 F   0  0
    0.1571   -6.2963    0.0000 F   0  0
    5.6042   -5.3251    0.0000 O   0  0
    4.7988   -4.1448    0.0000 C   0  0
    5.4803   -3.6798    0.0000 C   0  0
    9.3709   -3.8542    0.0000 N   0  0
    6.3167   -4.9084    0.0000 C   0  0
    7.0376   -5.3242    0.0000 C   0  0
    7.7537   -4.9041    0.0000 C   0  0
    7.7496   -4.0737    0.0000 C   0  0
    7.0233   -3.6651    0.0000 C   0  0
    6.3101   -4.0835    0.0000 C   0  0
    8.5459   -3.8542    0.0000 S   0  0
    8.5417   -3.0292    0.0000 O   0  0
    8.5417   -4.6792    0.0000 O   0  0
   10.0043   -4.3920    0.0000 C   0  0
    9.9424   -5.2188    0.0000 N   0  0
   10.7099   -5.5319    0.0000 N   0  0
   11.2477   -4.9026    0.0000 C   0  0
   10.8099   -4.1966    0.0000 S   0  0
   12.0652   -5.0407    0.0000 C   0  0
   12.5998   -4.4047    0.0000 C   0  0
   12.5347   -5.7175    0.0000 C   0  0
 14 17  1  0
 13 18  1  0
 13 19  1  0
 19 20  1  0
  3  4  2  0
  5  7  1  0
  8  9  1  0
 32 33  1  0
 33 34  2  0
 34 35  1  0
 35 31  1  0
 34 36  1  0
 25 26  1  0
 36 37  1  0
 36 38  1  0
 26 27  2  0
 27 22  1  0
 25 28  1  0
 28 29  2  0
 18 22  1  0
 28 30  2  0
 28 21  1  0
 22 23  2  0
 21 31  1  0
 31 32  2  0
 23 24  1  0
 24 25  2  0
  4  5  1  0
  2  3  1  0
  5  6  2  0
  7  8  2  0
  9 10  2  0
 10 11  1  0
 11  7  1  0
  6  1  1  0
 10 13  1  0
  1  2  2  0
  9 12  1  0
  2 14  1  0
 14 15  1  0
 14 16  1  0
M  END
>  <ID_NEW>
CPDPP3336

>  <pEC50>
6.167620321845829

$$$$

  SciTegic12180812332D

 32 34  0  0  0  0            999 V2000
    6.3706   -4.1760    0.0000 C   0  0
    5.6073   -5.4672    0.0000 N   0  0
    4.1433   -5.1403    0.0000 N   0  0
    4.0019   -3.6470    0.0000 C   0  0
    5.3784   -3.0510    0.0000 S   0  0
    7.8639   -4.0345    0.0000 C   0  0
    8.4880   -2.6705    0.0000 C   0  0
    8.7331   -5.2570    0.0000 C   0  0
    2.7106   -2.8837    0.0000 N   0  0
    1.4039   -3.6204    0.0000 S   0  0
    0.3542   -2.5489    0.0000 C   0  0
    0.2450   -4.5727    0.0000 O   0  0
    2.2516   -4.8579    0.0000 O   0  0
   -1.0986   -2.9222    0.0000 C   0  0
   -2.1483   -1.8507    0.0000 C   0  0
   -1.7452   -0.4059    0.0000 C   0  0
   -0.2924   -0.0326    0.0000 C   0  0
    0.7573   -1.1040    0.0000 C   0  0
   -2.7950    0.6656    0.0000 C   0  0
   -4.2478    0.2922    0.0000 N   0  0
   -9.6559    0.2437    0.0000 C   0  0
   -9.2528    1.6885    0.0000 C   0  0
   -8.6062   -0.8278    0.0000 C   0  0
  -11.1087   -0.1296    0.0000 C   0  0
   -7.8000    2.0619    0.0000 C   0  0
   -7.1534   -0.4544    0.0000 C   0  0
  -11.1241   -1.6295    0.0000 F   0  0
  -11.3540    1.3502    0.0000 F   0  0
  -12.6042   -0.2450    0.0000 F   0  0
   -6.7503    0.9904    0.0000 C   0  0
   -5.2975    1.3637    0.0000 C   0  0
   -4.8944    2.8086    0.0000 O   0  0
 10 13  2  0
  6  7  1  0
 11 14  2  0
  2  3  1  0
 14 15  1  0
  6  8  1  0
 15 16  2  0
  3  4  2  0
 16 17  1  0
  4  9  1  0
 17 18  2  0
 18 11  1  0
  4  5  1  0
 16 19  1  0
 19 20  1  0
  5  1  1  0
  9 10  1  0
  1  2  2  0
 10 11  1  0
  1  6  1  0
 10 12  2  0
 21 22  2  0
 21 23  1  0
 21 24  1  0
 22 25  1  0
 23 26  2  0
 24 27  1  0
 24 28  1  0
 24 29  1  0
 25 30  2  0
 30 31  1  0
 31 32  2  0
 26 30  1  0
 20 31  1  0
M  END
>  <ID_NEW>
CPDPP3337

>  <pEC50>
6.153974458647696

$$$$

  SciTegic12180813002D

 37 41  0  0  0  0            999 V2000
   -0.3639    2.7542    0.0000 C   0  0
   -0.3651    2.1268    0.0000 C   0  0
    0.1789    1.8140    0.0000 C   0  0
    0.7203    2.1273    0.0000 C   0  0
    0.7175    2.7578    0.0000 C   0  0
    0.1771    3.0670    0.0000 C   0  0
    1.2574    3.0726    0.0000 C   0  0
    1.8000    2.7624    0.0000 N   0  0
    2.2375    3.2083    0.0000 C   0  0
    2.8427    3.0523    0.0000 O   0  0
    2.0700    3.8105    0.0000 O   0  0
    1.2547    3.6976    0.0000 N   0  0
    1.2625    1.8163    0.0000 O   0  0
    1.2642    1.1913    0.0000 C   0  0
   -0.9064    1.8144    0.0000 O   0  0
   -1.4476    2.1269    0.0000 C   0  0
   -1.9889    1.8145    0.0000 C   0  0
   -2.5616    2.0676    0.0000 S   0  0
   -2.9799    1.6032    0.0000 C   0  0
   -2.6674    1.0618    0.0000 N   0  0
   -2.0561    1.1918    0.0000 C   0  0
   -3.6015    1.6685    0.0000 C   0  0
   -3.8543    2.2391    0.0000 C   0  0
   -4.4753    2.3047    0.0000 C   0  0
   -4.8434    1.7988    0.0000 C   0  0
   -4.5861    1.2256    0.0000 C   0  0
   -3.9659    1.1628    0.0000 C   0  0
   -1.5922    0.7730    0.0000 C   0  0
   -5.4650    1.8633    0.0000 C   0  0
   -5.7199    2.4340    0.0000 F   0  0
   -5.8318    1.3572    0.0000 F   0  0
   -5.2418    2.4471    0.0000 F   0  0
   -1.7229    0.1618    0.0000 N   0  0
   -1.2590   -0.2570    0.0000 C   0  0
   -1.3898   -0.8682    0.0000 C   0  0
   -1.8089   -1.3343    0.0000 C   0  0
   -1.1978   -1.4651    0.0000 C   0  0
  5  6  2  0
  6  1  1  0
  5  7  1  0
  7  8  1  0
  8  9  1  0
  9 10  2  0
  9 11  1  0
  7 12  2  0
 12 11  1  0
  4 13  1  0
 13 14  1  0
  2 15  1  0
 15 16  1  0
 16 17  1  0
 17 18  1  0
 18 19  1  0
 19 20  2  0
 20 21  1  0
 21 17  2  0
 19 22  1  0
 22 23  2  0
 23 24  1  0
 24 25  2  0
 25 26  1  0
 26 27  2  0
 27 22  1  0
 21 28  1  0
 25 29  1  0
 29 30  1  0
 29 31  1  0
 29 32  1  0
 28 33  1  0
  1  2  2  0
 33 34  1  0
  2  3  1  0
 34 35  1  0
 36 35  1  0
 37 36  1  0
 35 37  1  0
  3  4  2  0
  4  5  1  0
M  END
>  <ID_NEW>
CPDPP3338

>  <pEC50>
6.150656162510849

$$$$

  -MTS-   10172316532D 0   0.00000     0.00000     0

 33 36  0  0  1  0  0  0  0  0999 V2000
   -4.6750    0.1790    0.0000 C   0  0  0  0  0  0  0  0  0  0  0  0
   -4.6750   -0.4170    0.0000 C   0  0  1  0  0  0  0  0  0  0  0  0
   -4.1590   -0.7120    0.0000 C   0  0  0  0  0  0  0  0  0  0  0  0
   -3.6430   -0.4170    0.0000 C   0  0  0  0  0  0  0  0  0  0  0  0
   -3.6430    0.1790    0.0000 C   0  0  2  0  0  0  0  0  0  0  0  0
   -4.1590    0.4790    0.0000 C   0  0  0  0  0  0  0  0  0  0  0  0
   -5.1890   -0.7130    0.0000 C   0  0  0  0  0  0  0  0  0  0  0  0
   -5.7040   -0.4170    0.0000 F   0  0  0  0  0  0  0  0  0  0  0  0
   -5.1890   -1.3080    0.0000 F   0  0  0  0  0  0  0  0  0  0  0  0
   -5.3420   -0.1400    0.0000 F   0  0  0  0  0  0  0  0  0  0  0  0
   -3.1270    0.4740    0.0000 C   0  0  0  0  0  0  0  0  0  0  0  0
   -2.5830    0.2310    0.0000 N   0  0  0  0  0  0  0  0  0  0  0  0
   -2.1850    0.6710    0.0000 C   0  0  0  0  0  0  0  0  0  0  0  0
   -2.4840    1.1860    0.0000 C   0  0  0  0  0  0  0  0  0  0  0  0
   -3.0660    1.0630    0.0000 S   0  0  0  0  0  0  0  0  0  0  0  0
   -1.5950    0.6070    0.0000 C   0  0  0  0  0  0  0  0  0  0  0  0
   -2.2380    1.7290    0.0000 C   0  0  1  0  0  0  0  0  0  0  0  0
   -1.6480    1.7910    0.0000 O   0  0  0  0  0  0  0  0  0  0  0  0
   -2.3460    2.7530    0.0000 C   0  0  0  0  0  0  0  0  0  0  0  0
   -1.0470    2.6210    0.0000 C   0  0  0  0  0  0  0  0  0  0  0  0
   -1.0480    2.0810    0.0000 C   0  0  0  0  0  0  0  0  0  0  0  0
   -0.5840    1.8140    0.0000 C   0  0  0  0  0  0  0  0  0  0  0  0
   -0.1170    2.0810    0.0000 C   0  0  0  0  0  0  0  0  0  0  0  0
   -0.1200    2.6240    0.0000 C   0  0  0  0  0  0  0  0  0  0  0  0
   -0.5850    2.8880    0.0000 C   0  0  0  0  0  0  0  0  0  0  0  0
   -0.5880    3.4250    0.0000 F   0  0  0  0  0  0  0  0  0  0  0  0
    0.3440    2.8960    0.0000 C   0  0  0  0  0  0  0  0  0  0  0  0
    0.8360    2.6840    0.0000 N   0  0  0  0  0  0  0  0  0  0  0  0
    1.1930    3.0860    0.0000 C   0  0  0  0  0  0  0  0  0  0  0  0
    0.9210    3.5500    0.0000 O   0  0  0  0  0  0  0  0  0  0  0  0
    0.3960    3.4340    0.0000 N   0  0  0  0  0  0  0  0  0  0  0  0
    1.7280    3.0340    0.0000 O   0  0  0  0  0  0  0  0  0  0  0  0
   -2.5420    2.2460    0.0000 C   0  0  0  0  0  0  0  0  0  0  0  0
  1  2  1  0  0  0  0
  1  6  1  0  0  0  0
  2  3  1  0  0  0  0
  3  4  1  0  0  0  0
  4  5  1  0  0  0  0
  5  6  1  0  0  0  0
  2  7  1  1  0  0  0
  7  8  1  0  0  0  0
  7  9  1  0  0  0  0
  7 10  1  0  0  0  0
  5 11  1  6  0  0  0
 11 12  2  0  0  0  0
 12 13  1  0  0  0  0
 13 14  2  0  0  0  0
 14 15  1  0  0  0  0
 15 11  1  0  0  0  0
 13 16  1  0  0  0  0
 14 17  1  0  0  0  0
 17 18  1  0  0  0  0
 33 19  1  0  0  0  0
 20 21  2  0  0  0  0
 21 22  1  0  0  0  0
 22 23  2  0  0  0  0
 23 24  1  0  0  0  0
 24 25  2  0  0  0  0
 25 20  1  0  0  0  0
 18 21  1  0  0  0  0
 25 26  1  0  0  0  0
 24 27  1  0  0  0  0
 27 28  1  0  0  0  0
 28 29  1  0  0  0  0
 29 30  1  0  0  0  0
 30 31  1  0  0  0  0
 31 27  2  0  0  0  0
 29 32  2  0  0  0  0
 17 33  1  6  0  0  0
M  END
>  <ID_NEW>
CPDPP3339

>  <pEC50>
6.133806756116679

$$$$

  -MTS-   10172316532D 0   0.00000     0.00000     0

 36 39  0  0  0  0  0  0  0  0999 V2000
   -4.5330   -2.9040    0.0000 C   0  0  0  0  0  0  0  0  0  0  0  0
   -4.5330   -3.6540    0.0000 C   0  0  2  0  0  0  0  0  0  0  0  0
   -3.8840   -4.0290    0.0000 C   0  0  0  0  0  0  0  0  0  0  0  0
   -3.2340   -3.6540    0.0000 C   0  0  0  0  0  0  0  0  0  0  0  0
   -3.2340   -2.9040    0.0000 C   0  0  1  0  0  0  0  0  0  0  0  0
   -3.8840   -2.5290    0.0000 C   0  0  0  0  0  0  0  0  0  0  0  0
   -2.5840   -2.5320    0.0000 C   0  0  0  0  0  0  0  0  0  0  0  0
   -5.1830   -4.0310    0.0000 C   0  0  0  0  0  0  0  0  0  0  0  0
   -5.1830   -4.7810    0.0000 F   0  0  0  0  0  0  0  0  0  0  0  0
   -5.8320   -3.6580    0.0000 F   0  0  0  0  0  0  0  0  0  0  0  0
   -5.7120   -4.5610    0.0000 F   0  0  0  0  0  0  0  0  0  0  0  0
   -1.8970   -2.8340    0.0000 N   0  0  0  0  0  0  0  0  0  0  0  0
   -1.3940   -2.2760    0.0000 C   0  0  0  0  0  0  0  0  0  0  0  0
   -1.7700   -1.6260    0.0000 C   0  0  0  0  0  0  0  0  0  0  0  0
   -2.5040   -1.7820    0.0000 S   0  0  0  0  0  0  0  0  0  0  0  0
   -0.6490   -2.3540    0.0000 C   0  0  0  0  0  0  0  0  0  0  0  0
   -1.4630   -0.9400    0.0000 C   0  0  0  0  0  0  0  0  0  0  0  0
   -0.7180   -0.8600    0.0000 O   0  0  0  0  0  0  0  0  0  0  0  0
   -0.4110   -0.1750    0.0000 C   0  0  0  0  0  0  0  0  0  0  0  0
    0.3350   -0.1030    0.0000 C   0  0  0  0  0  0  0  0  0  0  0  0
    0.6380    0.5810    0.0000 C   0  0  0  0  0  0  0  0  0  0  0  0
    0.2000    1.1910    0.0000 C   0  0  0  0  0  0  0  0  0  0  0  0
   -0.5540    1.1120    0.0000 C   0  0  0  0  0  0  0  0  0  0  0  0
   -0.8570    0.4270    0.0000 C   0  0  0  0  0  0  0  0  0  0  0  0
    1.3870    0.6610    0.0000 O   0  0  0  0  0  0  0  0  0  0  0  0
    0.5080    1.8800    0.0000 C   0  0  0  0  0  0  0  0  0  0  0  0
    1.2420    2.0330    0.0000 N   0  0  0  0  0  0  0  0  0  0  0  0
    1.3230    2.7830    0.0000 O   0  0  0  0  0  0  0  0  0  0  0  0
    0.6350    3.0920    0.0000 C   0  0  0  0  0  0  0  0  0  0  0  0
    0.1290    2.5320    0.0000 N   0  0  0  0  0  0  0  0  0  0  0  0
    0.4790    3.8300    0.0000 O   0  0  0  0  0  0  0  0  0  0  0  0
    1.8310    0.0520    0.0000 C   0  0  0  0  0  0  0  0  0  0  0  0
    1.5260   -0.6370    0.0000 C   0  0  0  0  0  0  0  0  0  0  0  0
    1.9700   -1.2470    0.0000 F   0  0  0  0  0  0  0  0  0  0  0  0
    0.7760   -0.7170    0.0000 F   0  0  0  0  0  0  0  0  0  0  0  0
    2.2290   -0.3660    0.0000 F   0  0  0  0  0  0  0  0  0  0  0  0
  1  2  1  0  0  0  0
  1  6  1  0  0  0  0
  2  3  1  0  0  0  0
  3  4  1  0  0  0  0
  4  5  1  0  0  0  0
  5  6  1  0  0  0  0
  5  7  1  1  0  0  0
  2  8  1  6  0  0  0
  8  9  1  0  0  0  0
  8 10  1  0  0  0  0
  8 11  1  0  0  0  0
  7 12  2  0  0  0  0
 12 13  1  0  0  0  0
 13 14  2  0  0  0  0
 14 15  1  0  0  0  0
 15  7  1  0  0  0  0
 13 16  1  0  0  0  0
 14 17  1  0  0  0  0
 17 18  1  0  0  0  0
 18 19  1  0  0  0  0
 19 20  2  0  0  0  0
 20 21  1  0  0  0  0
 21 22  2  0  0  0  0
 22 23  1  0  0  0  0
 23 24  2  0  0  0  0
 24 19  1  0  0  0  0
 21 25  1  0  0  0  0
 22 26  1  0  0  0  0
 26 27  2  0  0  0  0
 27 28  1  0  0  0  0
 28 29  1  0  0  0  0
 29 30  1  0  0  0  0
 30 26  1  0  0  0  0
 29 31  2  0  0  0  0
 25 32  1  0  0  0  0
 32 33  1  0  0  0  0
 33 34  1  0  0  0  0
 33 35  1  0  0  0  0
 33 36  1  0  0  0  0
V    2 M1
V    5 M1
M  END
>  <ID_NEW>
CPDPP3340

>  <pEC50>
6.119110864571174

$$$$

  SciTegic12180813062D

 34 37  0  0  0  0            999 V2000
   -2.9463    2.2683    0.0000 C   0  0
   -3.6643    2.6842    0.0000 N   0  0
   -4.3785    2.2774    0.0000 C   0  0
   -4.3847    1.4477    0.0000 C   0  0
   -3.6678    1.0306    0.0000 C   0  0
   -2.9490    1.4425    0.0000 C   0  0
   -2.2365    1.0249    0.0000 Cl  0  0
   -5.1094    1.0291    0.0000 C   0  0
   -5.8321    0.6116    0.0000 F   0  0
   -5.5228    1.7540    0.0000 F   0  0
   -4.6901    0.3016    0.0000 F   0  0
    3.0977    1.9783    0.0000 C   0  0
    3.9211    1.9788    0.0000 S   0  0
    2.8451    2.7720    0.0000 N   0  0
    3.5055    3.2446    0.0000 N   0  0
    4.1749    2.7642    0.0000 C   0  0
    4.9621    3.0202    0.0000 C   0  0
    5.5758    2.4700    0.0000 C   0  0
    5.1287    3.8310    0.0000 C   0  0
    2.6832    1.2595    0.0000 N   0  0
    1.8494    1.2583    0.0000 S   0  0
    1.0149    1.2563    0.0000 C   0  0
    1.8469    2.0920    0.0000 O   0  0
    1.8507    0.4236    0.0000 O   0  0
   -2.2313    2.6784    0.0000 N   0  0
    0.6018    0.5444    0.0000 C   0  0
    0.6029    1.9756    0.0000 C   0  0
   -0.2268    0.5460    0.0000 C   0  0
   -0.6356    1.2640    0.0000 C   0  0
   -0.2204    1.9742    0.0000 C   0  0
   -0.7714    2.5892    0.0000 C   0  0
   -1.5212    2.2584    0.0000 C   0  0
   -1.4402    1.4371    0.0000 C   0  0
    1.0175   -0.1767    0.0000 Cl  0  0
  1  2  2  0
  2  3  1  0
  3  4  2  0
  4  5  1  0
 21 20  1  0
 26 22  2  0
 22 27  1  0
 27 30  2  0
 29 28  2  0
 28 26  1  0
 29 30  1  0
 30 31  1  0
 31 32  1  0
 32 33  1  0
 33 29  1  0
 32 25  1  0
 26 34  1  0
 21 24  2  0
 22 21  1  0
 21 23  2  0
 13 16  1  0
 15 14  1  0
 14 12  2  0
 15 16  2  0
 16 17  1  0
 17 18  1  0
 17 19  1  0
 20 12  1  0
 12 13  1  0
  5  6  2  0
  6  1  1  0
  6  7  1  0
  8  9  1  0
  8 10  1  0
  8 11  1  0
  4  8  1  0
 25  1  1  0
M  END
>  <ID_NEW>
CPDPP3341

>  <pEC50>
6.117962698061204

$$$$

  SciTegic12180811332D

 32 34  0  0  0  0            999 V2000
   -3.1034    1.2414    0.0000 C   0  0
   -3.4690    0.6241    0.0000 C   0  0
   -3.4517    1.8655    0.0000 C   0  0
   -2.3828    1.2310    0.0000 C   0  0
   -4.1862    0.6345    0.0000 C   0  0
   -3.1207   -0.0034    0.0000 O   0  0
   -4.1724    1.8793    0.0000 C   0  0
   -2.0310    0.6034    0.0000 N   0  0
   -2.0172    1.8483    0.0000 O   0  0
   -4.5379    1.2621    0.0000 C   0  0
   -2.4034   -0.0172    0.0000 C   0  0
   -4.5207    2.5069    0.0000 Cl  0  0
   -1.3138    0.5931    0.0000 C   0  0
   -0.9621   -0.0345    0.0000 C   0  0
   -0.2379   -0.0414    0.0000 C   0  0
    0.1241    0.5793    0.0000 C   0  0
    0.1207   -0.6655    0.0000 C   0  0
    0.8448    0.5759    0.0000 C   0  0
    0.8414   -0.6690    0.0000 C   0  0
    1.2000   -0.0448    0.0000 C   0  0
    1.9207   -0.0483    0.0000 S   0  0
    2.6345   -0.0448    0.0000 N   0  0
    2.2759   -0.6724    0.0000 O   0  0
    2.2862    0.5724    0.0000 O   0  0
    2.9966   -0.6655    0.0000 C   0  0
    2.7103   -1.3207    0.0000 S   0  0
    3.7103   -0.7448    0.0000 N   0  0
    3.2414   -1.8103    0.0000 C   0  0
    3.8517   -1.4655    0.0000 N   0  0
    3.1724   -2.5241    0.0000 C   0  0
    2.5207   -2.8241    0.0000 C   0  0
    3.7586   -2.9414    0.0000 C   0  0
  1  2  2  0
  1  3  1  0
  1  4  1  0
  2  5  1  0
  2  6  1  0
  3  7  2  0
  4  8  1  0
  4  9  2  0
  5 10  2  0
  6 11  1  0
  7 12  1  0
  8 13  1  0
 13 14  1  0
 14 15  1  0
 15 16  2  0
 15 17  1  0
 16 18  1  0
 17 19  2  0
 18 20  2  0
 20 21  1  0
 21 22  1  0
 21 23  2  0
 21 24  2  0
 22 25  1  0
 25 26  1  0
 25 27  2  0
 26 28  1  0
 27 29  1  0
 28 30  1  0
 30 31  1  0
 30 32  1  0
  7 10  1  0
 19 20  1  0
 28 29  2  0
M  END
>  <ID_NEW>
CPDPP3342

>  <pEC50>
6.105600254704223

$$$$

  SciTegic12180812472D

 37 40  0  0  0  0            999 V2000
    3.6837   -0.7621    0.0000 N   0  0
    4.4736   -1.0003    0.0000 N   0  0
    4.9458   -0.3237    0.0000 C   0  0
    4.4455    0.3355    0.0000 S   0  0
    3.6683    0.0615    0.0000 C   0  0
    2.9905    0.5318    0.0000 N   0  0
    5.7707   -0.3073    0.0000 C   0  0
    6.1973   -1.0134    0.0000 C   0  0
    6.1689    0.4153    0.0000 C   0  0
   -5.0091   -1.0606    0.0000 C   0  0
   -5.5508   -1.6829    0.0000 F   0  0
   -4.1994   -1.2185    0.0000 F   0  0
   -5.8322   -1.1176    0.0000 F   0  0
   -5.0045   -0.2408    0.0000 C   0  0
   -5.7181    1.0000    0.0000 C   0  0
   -5.7193    0.1727    0.0000 C   0  0
   -4.2880    0.1731    0.0000 C   0  0
   -4.2909    1.0037    0.0000 C   0  0
   -5.0062    1.4128    0.0000 C   0  0
   -3.5779    1.4189    0.0000 C   0  0
   -2.8211    1.0826    0.0000 N   0  0
   -2.2713    1.6978    0.0000 C   0  0
   -2.6866    2.4108    0.0000 C   0  0
   -3.4928    2.2361    0.0000 O   0  0
   -1.4505    1.6147    0.0000 C   0  0
   -1.1121    0.8623    0.0000 O   0  0
   -0.2913    0.7791    0.0000 C   0  0
    0.0446    0.0245    0.0000 C   0  0
    0.8646   -0.0589    0.0000 C   0  0
    1.3479    0.6108    0.0000 C   0  0
    1.0054    1.3660    0.0000 C   0  0
    0.1864    1.4458    0.0000 C   0  0
   -2.3539    3.1657    0.0000 C   0  0
    2.1688    0.5288    0.0000 S   0  0
    2.3792    1.3292    0.0000 O   0  0
    1.9500   -0.2667    0.0000 O   0  0
   -2.8414    3.8313    0.0000 C   0  0
  1  2  1  0
  2  3  2  0
  3  4  1  0
  4  5  1  0
  5  1  2  0
  5  6  1  0
  3  7  1  0
  7  8  1  0
  7  9  1  0
 10 11  1  0
 10 12  1  0
 10 13  1  0
 14 10  1  0
 15 16  2  0
 16 14  1  0
 14 17  2  0
 17 18  1  0
 18 19  2  0
 19 15  1  0
 18 20  1  0
 20 21  2  0
 21 22  1  0
 22 23  2  0
 23 24  1  0
 24 20  1  0
 22 25  1  0
 25 26  1  0
 26 27  1  0
 27 28  2  0
 28 29  1  0
 29 30  2  0
 30 31  1  0
 31 32  2  0
 32 27  1  0
 23 33  1  0
 30 34  1  0
 34 35  2  0
 34 36  2  0
 33 37  1  0
 34  6  1  0
M  END
>  <ID_NEW>
CPDPP3343

>  <pEC50>
6.094446769644264

$$$$

  -MTS-   10172316532D 0   0.00000     0.00000     0

 31 34  0  0  0  0  0  0  0  0999 V2000
   -4.6920   -2.0500    0.0000 C   0  0  0  0  0  0  0  0  0  0  0  0
   -4.6920   -2.7040    0.0000 C   0  0  2  0  0  0  0  0  0  0  0  0
   -4.1210   -3.0290    0.0000 C   0  0  0  0  0  0  0  0  0  0  0  0
   -3.5510   -2.7040    0.0000 C   0  0  0  0  0  0  0  0  0  0  0  0
   -3.5510   -2.0500    0.0000 C   0  0  1  0  0  0  0  0  0  0  0  0
   -4.1210   -1.7170    0.0000 C   0  0  0  0  0  0  0  0  0  0  0  0
   -5.2600   -3.0330    0.0000 C   0  0  0  0  0  0  0  0  0  0  0  0
   -5.8290   -2.7040    0.0000 F   0  0  0  0  0  0  0  0  0  0  0  0
   -5.2600   -3.6920    0.0000 F   0  0  0  0  0  0  0  0  0  0  0  0
   -5.4260   -2.3980    0.0000 F   0  0  0  0  0  0  0  0  0  0  0  0
   -2.9860   -1.7180    0.0000 C   0  0  0  0  0  0  0  0  0  0  0  0
   -2.3890   -1.9910    0.0000 N   0  0  0  0  0  0  0  0  0  0  0  0
   -1.9450   -1.5010    0.0000 C   0  0  0  0  0  0  0  0  0  0  0  0
   -2.2770   -0.9360    0.0000 C   0  0  0  0  0  0  0  0  0  0  0  0
   -2.9130   -1.0680    0.0000 S   0  0  0  0  0  0  0  0  0  0  0  0
   -1.2920   -1.5700    0.0000 C   0  0  0  0  0  0  0  0  0  0  0  0
   -2.0060   -0.3350    0.0000 C   0  0  0  0  0  0  0  0  0  0  0  0
   -1.3490   -0.2690    0.0000 O   0  0  0  0  0  0  0  0  0  0  0  0
   -1.0830    0.3320    0.0000 C   0  0  0  0  0  0  0  0  0  0  0  0
   -0.4300    0.4020    0.0000 C   0  0  0  0  0  0  0  0  0  0  0  0
   -0.1590    0.9980    0.0000 C   0  0  0  0  0  0  0  0  0  0  0  0
   -0.5500    1.5300    0.0000 C   0  0  0  0  0  0  0  0  0  0  0  0
   -1.2030    1.4600    0.0000 C   0  0  0  0  0  0  0  0  0  0  0  0
   -1.4690    0.8600    0.0000 C   0  0  0  0  0  0  0  0  0  0  0  0
    0.4940    1.0670    0.0000 F   0  0  0  0  0  0  0  0  0  0  0  0
   -0.2800    2.1320    0.0000 C   0  0  0  0  0  0  0  0  0  0  0  0
    0.3600    2.2650    0.0000 N   0  0  0  0  0  0  0  0  0  0  0  0
    0.4270    2.9170    0.0000 O   0  0  0  0  0  0  0  0  0  0  0  0
   -0.1700    3.1870    0.0000 C   0  0  0  0  0  0  0  0  0  0  0  0
   -0.6090    2.6960    0.0000 N   0  0  0  0  0  0  0  0  0  0  0  0
   -0.3080    3.8310    0.0000 O   0  0  0  0  0  0  0  0  0  0  0  0
  1  2  1  0  0  0  0
  1  6  1  0  0  0  0
  2  3  1  0  0  0  0
  3  4  1  0  0  0  0
  4  5  1  0  0  0  0
  5  6  1  0  0  0  0
  2  7  1  6  0  0  0
  7  8  1  0  0  0  0
  7  9  1  0  0  0  0
  7 10  1  0  0  0  0
  5 11  1  1  0  0  0
 11 12  2  0  0  0  0
 12 13  1  0  0  0  0
 13 14  2  0  0  0  0
 14 15  1  0  0  0  0
 15 11  1  0  0  0  0
 13 16  1  0  0  0  0
 14 17  1  0  0  0  0
 17 18  1  0  0  0  0
 18 19  1  0  0  0  0
 19 20  2  0  0  0  0
 20 21  1  0  0  0  0
 21 22  2  0  0  0  0
 22 23  1  0  0  0  0
 23 24  2  0  0  0  0
 24 19  1  0  0  0  0
 21 25  1  0  0  0  0
 22 26  1  0  0  0  0
 26 27  2  0  0  0  0
 27 28  1  0  0  0  0
 28 29  1  0  0  0  0
 29 30  1  0  0  0  0
 30 26  1  0  0  0  0
 29 31  2  0  0  0  0
V    2 M1
V    5 M1
M  END
>  <ID_NEW>
CPDPP3344

>  <pEC50>
6.088613180791276

$$$$

  SciTegic12180812472D

 32 34  0  0  0  0            999 V2000
    0.1435    5.3005    0.0000 C   0  0
   -1.3093    4.9271    0.0000 C   0  0
   -1.7123    3.4823    0.0000 C   0  0
   -0.6626    2.4108    0.0000 C   0  0
    0.7902    2.7842    0.0000 C   0  0
    1.1933    4.2290    0.0000 C   0  0
   -2.3590    5.9986    0.0000 C   0  0
    1.8399    1.7127    0.0000 S   0  0
   -3.8118    5.6253    0.0000 C   0  0
   -4.8615    6.6968    0.0000 N   0  0
    2.6876    0.4752    0.0000 O   0  0
    0.6810    0.7603    0.0000 O   0  0
    3.1466    2.4493    0.0000 N   0  0
    4.4379    1.6860    0.0000 C   0  0
    4.5793    0.1927    0.0000 N   0  0
    6.0433   -0.1342    0.0000 N   0  0
    6.8066    1.1571    0.0000 C   0  0
    5.8144    2.2820    0.0000 S   0  0
    8.2999    1.2986    0.0000 C   0  0
    8.9240    2.6625    0.0000 C   0  0
    9.1691    0.0760    0.0000 C   0  0
   -7.3640    7.3949    0.0000 C   0  0
   -6.9610    8.8397    0.0000 C   0  0
   -8.0107    9.9112    0.0000 C   0  0
   -9.4635    9.5379    0.0000 C   0  0
   -9.8665    8.0930    0.0000 C   0  0
   -8.8168    7.0215    0.0000 C   0  0
  -10.5132   10.6094    0.0000 C   0  0
   -5.5082    9.2131    0.0000 O   0  0
   -5.1051   10.6579    0.0000 C   0  0
   -6.3143    6.3234    0.0000 C   0  0
   -6.7174    4.8786    0.0000 O   0  0
  5  8  1  0
  7  9  1  0
  9 10  1  0
  8 11  2  0
  8 12  2  0
  8 13  1  0
 13 14  1  0
 14 15  2  0
 15 16  1  0
 16 17  2  0
 17 18  1  0
 18 14  1  0
 17 19  1  0
 19 20  1  0
 19 21  1  0
  1  2  2  0
  2  3  1  0
  3  4  2  0
  4  5  1  0
  5  6  2  0
  6  1  1  0
  2  7  1  0
 27 22  1  0
 22 23  2  0
 25 28  1  0
 24 25  2  0
 23 29  1  0
 29 30  1  0
 25 26  1  0
 22 31  1  0
 23 24  1  0
 31 32  2  0
 26 27  2  0
 10 31  1  0
M  END
>  <ID_NEW>
CPDPP3345

>  <pEC50>
6.086539731800151

$$$$

  SciTegic12180812562D

 28 31  0  0  0  0            999 V2000
    6.3353   -0.2989    0.0000 C   0  0
    7.6304    0.4610    0.0000 C   0  0
    8.9333   -0.2874    0.0000 C   0  0
    8.9411   -1.7874    0.0000 C   0  0
    7.6460   -2.5390    0.0000 C   0  0
    6.3431   -1.7990    0.0000 C   0  0
   10.2284    0.4726    0.0000 C   0  0
    5.0479   -2.5505    0.0000 C   0  0
    5.0557   -4.0495    0.0000 N   0  0
    6.3586   -4.7927    0.0000 C   0  0
    7.6537   -4.0360    0.0000 C   0  0
    8.9566   -4.7792    0.0000 C   0  0
   10.2518   -4.0225    0.0000 C   0  0
   -0.0973   -7.9289    0.0000 C   0  0
   -0.8540   -6.6338    0.0000 C   0  0
   -0.1108   -5.3309    0.0000 C   0  0
    1.4027   -7.9211    0.0000 C   0  0
    2.1459   -6.6182    0.0000 C   0  0
    1.3892   -5.3231    0.0000 C   0  0
    2.3871   -4.2032    0.0000 N   0  0
    3.7606   -4.8062    0.0000 C   0  0
    3.6115   -6.2987    0.0000 S   0  0
   -0.8406   -9.2318    0.0000 Cl  0  0
   11.5968   -0.1289    0.0000 N   0  0
   12.5937    0.9940    0.0000 O   0  0
   11.8336    2.2892    0.0000 C   0  0
   10.3672    1.9665    0.0000 N   0  0
   12.5833    3.5958    0.0000 O   0  0
  4  5  1  0
  8  9  1  0
  9 10  1  0
  2  3  1  0
 10 11  1  0
  5  6  2  0
 11 12  1  0
  6  1  1  0
 12 13  1  0
 15 16  1  0
 16 19  2  0
 14 15  2  0
 18 17  2  0
 19 20  1  0
 20 21  2  0
 21 22  1  0
 22 18  1  0
 17 14  1  0
 18 19  1  0
 14 23  1  0
  9 21  1  0
  7 24  2  0
  1  2  2  0
  3  7  1  0
  3  4  2  0
 24 25  1  0
 25 26  1  0
 26 27  1  0
 27  7  1  0
  6  8  1  0
 26 28  2  0
M  END
>  <ID_NEW>
CPDPP3346

>  <pEC50>
6.084481228031203

$$$$

  SciTegic12180813032D

 31 34  0  0  0  0            999 V2000
   -4.3183    1.5921    0.0000 C   0  0
   -4.6934    0.7814    0.0000 C   0  0
   -4.1808    0.0541    0.0000 C   0  0
   -3.2927    0.1335    0.0000 C   0  0
   -2.9214    0.9399    0.0000 C   0  0
   -3.4340    1.6671    0.0000 C   0  0
   -5.5773    0.7023    0.0000 Cl  0  0
   -2.0416    1.0189    0.0000 C   0  0
   -1.4602    0.3506    0.0000 N   0  0
   -0.6446    0.6967    0.0000 C   0  0
   -0.7241    1.5807    0.0000 S   0  0
   -1.5845    1.7805    0.0000 C   0  0
    0.1125    0.2435    0.0000 N   0  0
    0.8890    0.6748    0.0000 C   0  0
    1.6502    0.2174    0.0000 C   0  0
    2.4268    0.6483    0.0000 C   0  0
    3.1884    0.1913    0.0000 C   0  0
    3.9608    0.6223    0.0000 C   0  0
    3.9760    1.5064    0.0000 C   0  0
    3.2185    1.9638    0.0000 C   0  0
    2.4420    1.5325    0.0000 C   0  0
    4.7483    1.9377    0.0000 C   0  0
    0.8544   -1.0940    0.0000 C   0  0
    0.0972   -0.6407    0.0000 C   0  0
    0.8391   -1.9781    0.0000 C   0  0
    5.5529    1.5686    0.0000 N   0  0
    6.1581    2.2188    0.0000 O   0  0
    5.7268    2.9953    0.0000 C   0  0
    4.8551    2.8249    0.0000 N   0  0
    6.1014    3.7965    0.0000 O   0  0
    0.0658   -2.4069    0.0000 C   0  0
 15 16  1  0
 16 17  2  0
  5  8  1  0
 17 18  1  0
  8  9  1  0
 18 19  2  0
  3  4  2  0
 19 20  1  0
  1  2  2  0
 20 21  2  0
 21 16  1  0
  4  5  1  0
 19 22  1  0
  9 10  2  0
 10 11  1  0
 11 12  1  0
 12  8  2  0
  5  6  2  0
 23 24  1  0
 23 25  1  0
 13 24  1  0
 10 13  1  0
  6  1  1  0
 13 14  1  0
  2  3  1  0
 14 15  1  0
  2  7  1  0
 22 26  2  0
 26 27  1  0
 27 28  1  0
 28 29  1  0
 29 22  1  0
 28 30  2  0
 25 31  1  0
M  END
>  <ID_NEW>
CPDPP3347

>  <pEC50>
6.072695710577471

$$$$

  -MTS-   10172316532D 0   0.00000     0.00000     0

 42 47  0  0  0  0  0  0  0  0999 V2000
   -0.3600    2.5580    0.0000 C   0  0  0  0  0  0  0  0  0  0  0  0
   -0.3610    1.9310    0.0000 C   0  0  0  0  0  0  0  0  0  0  0  0
    0.1830    1.6180    0.0000 C   0  0  0  0  0  0  0  0  0  0  0  0
    0.7240    1.9310    0.0000 C   0  0  0  0  0  0  0  0  0  0  0  0
    0.7220    2.5620    0.0000 C   0  0  0  0  0  0  0  0  0  0  0  0
    0.1810    2.8710    0.0000 C   0  0  0  0  0  0  0  0  0  0  0  0
    1.2620    2.8770    0.0000 C   0  0  0  0  0  0  0  0  0  0  0  0
    1.0960    3.4830    0.0000 N   0  0  0  0  0  0  0  0  0  0  0  0
    1.6330    3.8000    0.0000 O   0  0  0  0  0  0  0  0  0  0  0  0
    2.1710    3.4870    0.0000 C   0  0  0  0  0  0  0  0  0  0  0  0
    2.7710    3.6500    0.0000 O   0  0  0  0  0  0  0  0  0  0  0  0
    2.1670    2.8620    0.0000 N   0  0  0  0  0  0  0  0  0  0  0  0
    1.2670    1.6200    0.0000 O   0  0  0  0  0  0  0  0  0  0  0  0
    1.2680    0.9950    0.0000 C   0  0  0  0  0  0  0  0  0  0  0  0
   -0.9020    1.6190    0.0000 O   0  0  0  0  0  0  0  0  0  0  0  0
   -1.4430    1.9310    0.0000 C   0  0  0  0  0  0  0  0  0  0  0  0
   -1.9850    1.6190    0.0000 C   0  0  0  0  0  0  0  0  0  0  0  0
   -2.5560    1.8720    0.0000 S   0  0  0  0  0  0  0  0  0  0  0  0
   -2.9750    1.4070    0.0000 C   0  0  0  0  0  0  0  0  0  0  0  0
   -2.6610    0.8660    0.0000 N   0  0  0  0  0  0  0  0  0  0  0  0
   -2.0500    0.9980    0.0000 C   0  0  0  0  0  0  0  0  0  0  0  0
   -1.5850    0.5800    0.0000 C   0  0  0  0  0  0  0  0  0  0  0  0
   -3.5970    1.4720    0.0000 C   0  0  0  0  0  0  0  0  0  0  0  0
   -3.8520    2.0410    0.0000 C   0  0  0  0  0  0  0  0  0  0  0  0
   -4.4730    2.1060    0.0000 C   0  0  0  0  0  0  0  0  0  0  0  0
   -4.8410    1.6000    0.0000 C   0  0  0  0  0  0  0  0  0  0  0  0
   -4.5830    1.0270    0.0000 C   0  0  0  0  0  0  0  0  0  0  0  0
   -3.9630    0.9650    0.0000 C   0  0  0  0  0  0  0  0  0  0  0  0
   -5.4630    1.6640    0.0000 C   0  0  0  0  0  0  0  0  0  0  0  0
   -5.7180    2.2350    0.0000 F   0  0  0  0  0  0  0  0  0  0  0  0
   -5.8290    1.1580    0.0000 F   0  0  0  0  0  0  0  0  0  0  0  0
   -5.2400    2.2480    0.0000 F   0  0  0  0  0  0  0  0  0  0  0  0
   -1.1090   -0.1940    0.0000 C   0  0  1  0  0  0  0  0  0  0  0  0
   -0.4840   -0.1940    0.0000 C   0  0  2  0  0  0  0  0  0  0  0  0
   -0.8010   -0.7310    0.0000 C   0  0  0  0  0  0  0  0  0  0  0  0
   -0.1760   -0.7310    0.0000 C   0  0  1  0  0  0  0  0  0  0  0  0
   -0.0430    0.2520    0.0000 C   0  0  0  0  0  0  0  0  0  0  0  0
    0.3990   -0.1900    0.0000 C   0  0  0  0  0  0  0  0  0  0  0  0
    0.3610   -1.0440    0.0000 C   0  0  0  0  0  0  0  0  0  0  0  0
   -1.7130   -0.0310    0.0000 N   0  0  0  0  0  0  0  0  0  0  0  0
   -0.5450    0.1980    0.0000 H   0  0  0  0  0  0  0  0  0  0  0  0
   -0.8690    0.7290    0.0000 H   0  0  0  0  0  0  0  0  0  0  0  0
  3  4  2  0  0  0  0
  4  5  1  0  0  0  0
  5  6  2  0  0  0  0
  6  1  1  0  0  0  0
  5  7  1  0  0  0  0
  7  8  2  0  0  0  0
  8  9  1  0  0  0  0
  9 10  1  0  0  0  0
 10 11  2  0  0  0  0
 10 12  1  0  0  0  0
 12  7  1  0  0  0  0
  4 13  1  0  0  0  0
 13 14  1  0  0  0  0
  2 15  1  0  0  0  0
 15 16  1  0  0  0  0
 16 17  1  0  0  0  0
 18 19  1  0  0  0  0
 17 18  1  0  0  0  0
 19 20  2  0  0  0  0
 20 21  1  0  0  0  0
 21 17  2  0  0  0  0
 21 22  1  0  0  0  0
 19 23  1  0  0  0  0
 23 24  2  0  0  0  0
 24 25  1  0  0  0  0
 25 26  2  0  0  0  0
 26 27  1  0  0  0  0
 27 28  2  0  0  0  0
 28 23  1  0  0  0  0
 26 29  1  0  0  0  0
 29 30  1  0  0  0  0
 29 31  1  0  0  0  0
 29 32  1  0  0  0  0
  1  2  2  0  0  0  0
  2  3  1  0  0  0  0
 22 40  1  0  0  0  0
 33 34  1  0  0  0  0
 33 35  1  0  0  0  0
 35 36  1  0  0  0  0
 34 37  1  0  0  0  0
 37 38  1  0  0  0  0
 38 36  1  0  0  0  0
 36 39  1  0  0  0  0
 39 34  1  0  0  0  0
 33 40  1  1  0  0  0
 36 41  1  6  0  0  0
 34 42  1  1  0  0  0
V   33 M1
V   34 M1
V   36 M1
M  END
>  <ID_NEW>
CPDPP3348

>  <pEC50>
6.057713062341898

$$$$

  SciTegic12180813002D

 37 39  0  0  0  0            999 V2000
    1.2451   -7.1309    0.0000 C   0  0
    1.2445   -7.9559    0.0000 O   0  0
    0.5250   -6.7167    0.0000 C   0  0
    0.5223   -5.8848    0.0000 C   0  0
   -0.1970   -5.4706    0.0000 C   0  0
   -0.9168   -5.8872    0.0000 C   0  0
   -0.9128   -6.7223    0.0000 C   0  0
   -0.1929   -7.1327    0.0000 C   0  0
   -0.2000   -7.9542    0.0000 O   0  0
   -1.6324   -5.4768    0.0000 C   0  0
   -1.6348   -4.6518    0.0000 F   0  0
   -2.3457   -5.8913    0.0000 F   0  0
   -2.2208   -4.8875    0.0000 F   0  0
    2.0208   -6.6708    0.0000 N   0  0
    2.7333   -6.2542    0.0000 C   0  0
    3.3166   -6.8375    0.0000 C   0  0
    3.9000   -6.2500    0.0000 C   0  0
    4.7008   -6.4644    0.0000 C   0  0
    5.2838   -5.8777    0.0000 C   0  0
    5.0669   -5.0778    0.0000 C   0  0
    4.2616   -4.8678    0.0000 C   0  0
    3.6820   -5.4561    0.0000 C   0  0
    5.6500   -4.4875    0.0000 S   0  0
    5.4333   -3.6875    0.0000 O   0  0
    6.0583   -5.2000    0.0000 O   0  0
    6.3625   -4.0708    0.0000 N   0  0
    7.0750   -4.4833    0.0000 C   0  0
    7.7875   -4.0667    0.0000 S   0  0
    8.5000   -4.4792    0.0000 C   0  0
    7.2875   -5.2792    0.0000 N   0  0
    8.2833   -5.2750    0.0000 N   0  0
    9.3250   -4.4792    0.0000 C   0  0
   -0.9180   -8.3605    0.0000 C   0  0
   -0.9251   -9.1855    0.0000 C   0  0
   -1.6289   -7.9419    0.0000 C   0  0
    9.7375   -5.1937    0.0000 C   0  0
    9.7375   -3.7647    0.0000 C   0  0
  8  3  1  0
 10 13  1  0
  3  4  2  0
  8  9  1  0
  4  5  1  0
  1  2  2  0
  5  6  2  0
  1  3  1  0
  6 10  1  0
 15 16  1  0
 16 17  1  0
 17 18  2  0
 18 19  1  0
 19 20  2  0
 20 21  1  0
 21 22  2  0
 22 17  1  0
 20 23  1  0
 23 24  2  0
 23 25  2  0
 23 26  1  0
 26 27  1  0
 27 28  1  0
 28 29  1  0
 27 30  2  0
 29 31  2  0
 30 31  1  0
 29 32  1  0
 14 15  1  0
  1 14  1  0
  6  7  1  0
  9 33  1  0
 10 11  1  0
 33 34  1  0
  7  8  2  0
 33 35  1  0
 32 36  1  0
 10 12  1  0
 32 37  1  0
M  END
>  <ID_NEW>
CPDPP3349

>  <pEC50>
6.05019673221414

$$$$

  SciTegic12180812472D

 37 40  0  0  0  0            999 V2000
    5.7871   -2.7556    0.0000 N   0  0
    6.6746   -2.7556    0.0000 N   0  0
    6.9523   -1.9131    0.0000 C   0  0
    6.2288   -1.3889    0.0000 S   0  0
    5.5138   -1.9131    0.0000 C   0  0
    4.6748   -1.6419    0.0000 N   0  0
    7.7956   -1.6384    0.0000 C   0  0
    8.4537   -2.2330    0.0000 C   0  0
    7.9807   -0.7734    0.0000 C   0  0
   -5.0380    0.6584    0.0000 C   0  0
   -4.9797    1.5442    0.0000 F   0  0
   -5.8322    0.2646    0.0000 F   0  0
   -4.3718    1.2440    0.0000 F   0  0
   -4.3007    0.1691    0.0000 O   0  0
    1.4022    1.3516    0.0000 O   0  0
   -3.5347    1.4959    0.0000 C   0  0
   -3.5359    0.6102    0.0000 C   0  0
   -2.7711    0.1681    0.0000 C   0  0
   -2.0046    0.6107    0.0000 C   0  0
   -2.0075    1.4995    0.0000 C   0  0
   -2.7729    1.9378    0.0000 C   0  0
   -1.2446    1.9439    0.0000 C   0  0
   -0.4317    1.5887    0.0000 N   0  0
    0.1597    2.2497    0.0000 C   0  0
   -0.2889    3.0169    0.0000 C   0  0
   -1.1535    2.8297    0.0000 O   0  0
    0.0687    3.8301    0.0000 C   0  0
    1.0388    2.1624    0.0000 C   0  0
    3.4183   -0.3848    0.0000 C   0  0
    3.5863    0.4904    0.0000 C   0  0
    2.9110    1.0710    0.0000 C   0  0
    2.0716    0.7777    0.0000 C   0  0
    1.9070   -0.1013    0.0000 C   0  0
    2.5836   -0.6783    0.0000 C   0  0
    4.0458   -1.0125    0.0000 S   0  0
    4.6667   -0.3875    0.0000 O   0  0
    3.4166   -1.6375    0.0000 O   0  0
  2  3  2  0
  3  4  1  0
  4  5  1  0
  5  1  2  0
  5  6  1  0
  3  7  1  0
  7  8  1  0
  7  9  1  0
  1  2  1  0
 34 29  1  0
 29 35  1  0
 35 36  2  0
 35 37  2  0
 10 12  1  0
 10 13  1  0
 32 15  1  0
 19 20  1  0
 17 18  1  0
 22 23  2  0
 20 21  2  0
 21 16  1  0
 16 17  2  0
 23 24  1  0
 24 25  2  0
 25 26  1  0
 26 22  1  0
 18 19  2  0
 25 27  1  0
 20 22  1  0
 24 28  1  0
 28 15  1  0
 17 14  1  0
 14 10  1  0
 10 11  1  0
 29 30  2  0
 30 31  1  0
 31 32  2  0
 32 33  1  0
 33 34  2  0
 35  6  1  0
M  END
>  <ID_NEW>
CPDPP3350

>  <pEC50>
6.041506813840523

$$$$

  SciTegic12180812322D

 36 38  0  0  0  0            999 V2000
    6.2256   -3.2951    0.0000 N   0  0
    6.9381   -2.8785    0.0000 C   0  0
    7.5214   -3.4618    0.0000 C   0  0
    8.1130   -2.8743    0.0000 C   0  0
    8.9122   -3.0887    0.0000 C   0  0
    9.4959   -2.5020    0.0000 C   0  0
    9.2795   -1.7021    0.0000 C   0  0
    8.4681   -1.4921    0.0000 C   0  0
    7.8894   -2.0804    0.0000 C   0  0
    9.8630   -1.1118    0.0000 S   0  0
    9.6381   -0.3118    0.0000 O   0  0
   10.2631   -1.8243    0.0000 O   0  0
   10.5755   -0.6951    0.0000 N   0  0
   11.2880   -1.1076    0.0000 C   0  0
   12.0005   -0.6910    0.0000 S   0  0
   12.7130   -1.1035    0.0000 C   0  0
   11.5005   -1.9035    0.0000 N   0  0
   12.4963   -1.8993    0.0000 N   0  0
   13.5380   -1.1035    0.0000 C   0  0
   14.2505   -0.6868    0.0000 C   0  0
   14.1213   -1.6868    0.0000 C   0  0
    3.3695   -3.3041    0.0000 C   0  0
    3.3683   -4.1315    0.0000 C   0  0
    4.0831   -4.5443    0.0000 C   0  0
    4.7996   -4.1310    0.0000 C   0  0
    4.7967   -3.3005    0.0000 C   0  0
    4.0813   -2.8913    0.0000 C   0  0
    2.6535   -4.5434    0.0000 O   0  0
    5.5147   -4.5424    0.0000 O   0  0
    5.5096   -2.8853    0.0000 C   0  0
    5.5065   -2.0603    0.0000 O   0  0
    1.9394   -4.1303    0.0000 C   0  0
    1.2246   -4.5423    0.0000 F   0  0
    1.9400   -3.3053    0.0000 F   0  0
    1.2209   -3.7166    0.0000 F   0  0
    5.5160   -5.3674    0.0000 C   0  0
 15 16  1  0
 14 17  2  0
 16 18  2  0
 17 18  1  0
 16 19  1  0
 19 20  1  0
 19 21  1  0
  1  2  1  0
  2  3  1  0
  3  4  1  0
  4  5  2  0
  5  6  1  0
  6  7  2  0
  7  8  1  0
  8  9  2  0
  9  4  1  0
  7 10  1  0
 10 11  2  0
 10 12  2  0
 10 13  1  0
 13 14  1  0
 14 15  1  0
 24 25  2  0
 25 29  1  0
 26 30  1  0
 25 26  1  0
 30  1  1  0
 23 24  1  0
 30 31  2  0
 28 32  1  0
 26 27  2  0
 32 33  1  0
 27 22  1  0
 32 34  1  0
 22 23  2  0
 32 35  1  0
 29 36  1  0
 23 28  1  0
M  END
>  <ID_NEW>
CPDPP3351

>  <pEC50>
6.036810421066956

$$$$

  SciTegic12180813012D

 36 39  0  0  0  0            999 V2000
   -1.4338   -2.4011    0.0000 C   0  0
   -0.9726   -1.7835    0.0000 C   0  0
   -1.2752   -1.0800    0.0000 C   0  0
   -2.1930   -2.3162    0.0000 C   0  0
   -2.4982   -1.6111    0.0000 C   0  0
   -2.0403   -0.9939    0.0000 C   0  0
   -2.4842   -0.3623    0.0000 S   0  0
   -3.2231   -0.5942    0.0000 C   0  0
   -3.2316   -1.3668    0.0000 N   0  0
   -0.2116   -1.8709    0.0000 C   0  0
    0.0944   -2.5784    0.0000 F   0  0
    0.2476   -1.2549    0.0000 F   0  0
   -0.4953   -2.5877    0.0000 F   0  0
   -3.8397   -0.1357    0.0000 N   0  0
   -3.1823    1.7863    0.0000 C   0  0
   -3.1803    1.0154    0.0000 C   0  0
   -2.5177    0.6303    0.0000 C   0  0
   -1.8530    1.0202    0.0000 C   0  0
   -1.8551    1.7869    0.0000 C   0  0
   -2.5218    2.1678    0.0000 C   0  0
   -1.1945    2.1684    0.0000 C   0  0
   -3.8450    0.6297    0.0000 C   0  0
   -2.5239    2.9345    0.0000 C   0  0
   -3.2691    3.1315    0.0000 F   0  0
   -2.3904    3.6944    0.0000 F   0  0
   -1.7543    2.8673    0.0000 F   0  0
   -5.1702   -1.6747    0.0000 N   0  0
   -5.8327   -1.2891    0.0000 C   0  0
   -5.1681   -2.4414    0.0000 C   0  0
   -4.5055   -1.2854    0.0000 C   0  0
   -4.5076   -0.5187    0.0000 C   0  0
   -0.4911    1.8580    0.0000 N   0  0
    0.0225    2.4298    0.0000 O   0  0
   -0.3633    3.0946    0.0000 C   0  0
   -1.1115    2.9356    0.0000 N   0  0
   -0.0499    3.7984    0.0000 O   0  0
 27 28  1  0
 27 29  1  0
 27 30  1  0
 30 31  1  0
 31 14  1  0
 22 14  1  0
 16 22  1  0
 20 23  1  0
 23 24  1  0
 23 25  1  0
  1  2  2  0
 10 12  1  0
 10 13  1  0
  2  3  1  0
  3  6  2  0
  6  7  1  0
  7  8  1  0
  8  9  2  0
  9  5  1  0
  5  4  2  0
  4  1  1  0
  2 10  1  0
  5  6  1  0
 10 11  1  0
  8 14  1  0
 23 26  1  0
 15 16  2  0
 16 17  1  0
 17 18  2  0
 18 19  1  0
 19 20  2  0
 20 15  1  0
 19 21  1  0
 21 32  2  0
 32 33  1  0
 33 34  1  0
 34 35  1  0
 35 21  1  0
 34 36  2  0
M  END
>  <ID_NEW>
CPDPP3352

>  <pEC50>
6.03624792592687

$$$$

  SciTegic12180813102D

 34 37  0  0  0  0            999 V2000
   -3.4957    2.6247    0.0000 C   0  0
   -4.3005    2.8246    0.0000 N   0  0
   -4.8735    2.2329    0.0000 C   0  0
   -4.6476    1.4330    0.0000 C   0  0
   -3.8394    1.2360    0.0000 C   0  0
   -3.2676    1.8303    0.0000 C   0  0
   -2.4679    1.6329    0.0000 Cl  0  0
   -5.2252    0.8327    0.0000 C   0  0
   -5.8057    0.2289    0.0000 F   0  0
   -5.8296    1.4090    0.0000 F   0  0
   -4.6224    0.2516    0.0000 F   0  0
   -2.9239    3.2193    0.0000 N   0  0
    0.5904    2.7613    0.0000 C   0  0
    1.3911    2.9965    0.0000 S   0  0
    1.1556    3.7963    0.0000 O   0  0
    2.1901    3.2369    0.0000 N   0  0
    1.6257    2.1954    0.0000 O   0  0
    0.3927    1.9622    0.0000 C   0  0
   -0.0063    3.3368    0.0000 C   0  0
   -0.4032    1.7322    0.0000 C   0  0
   -0.9964    2.3073    0.0000 C   0  0
   -0.7963    3.1053    0.0000 C   0  0
   -1.4973    3.5417    0.0000 C   0  0
   -2.1247    3.0146    0.0000 C   0  0
   -1.8174    2.2485    0.0000 C   0  0
    2.7871    2.6627    0.0000 C   0  0
    3.6182    2.7283    0.0000 S   0  0
    3.9287    1.9783    0.0000 C   0  0
    3.3088    1.4334    0.0000 N   0  0
    2.6008    1.8645    0.0000 N   0  0
    4.7404    1.7955    0.0000 C   0  0
    5.2998    2.4064    0.0000 C   0  0
    4.9798    1.0055    0.0000 C   0  0
    0.9873    1.3903    0.0000 C   0  0
 26 27  1  0
 27 28  1  0
 28 29  2  0
 29 30  1  0
 30 26  2  0
 28 31  1  0
 31 32  1  0
 31 33  1  0
  5  6  2  0
  6  1  1  0
  6  7  1  0
  8  9  1  0
  8 10  1  0
  8 11  1  0
  4  8  1  0
 12  1  1  0
  1  2  2  0
  2  3  1  0
  3  4  2  0
  4  5  1  0
 22 23  1  0
 23 24  1  0
 24 25  1  0
 25 21  1  0
 24 12  1  0
 14 17  2  0
 13 14  1  0
 14 15  2  0
 14 16  1  0
 18 13  2  0
 13 19  1  0
 19 22  2  0
 21 20  2  0
 20 18  1  0
 21 22  1  0
 16 26  1  0
 18 34  1  0
M  END
>  <ID_NEW>
CPDPP3353

>  <pEC50>
6.035300791010172

$$$$

  SciTegic12180812472D

 35 37  0  0  0  0            999 V2000
    2.4793   -3.3050    0.0000 C   0  0
    2.4061   -2.4832    0.0000 O   0  0
    3.2276   -3.6524    0.0000 N   0  0
    5.3735   -2.4125    0.0000 C   0  0
    5.3723   -3.2398    0.0000 C   0  0
    6.0872   -3.6527    0.0000 C   0  0
    6.8036   -3.2394    0.0000 C   0  0
    6.8007   -2.4088    0.0000 C   0  0
    6.0854   -1.9997    0.0000 C   0  0
    4.6575   -3.6518    0.0000 C   0  0
    7.5137   -1.9936    0.0000 S   0  0
    3.9434   -3.2387    0.0000 C   0  0
    7.0958   -1.2750    0.0000 O   0  0
    7.9208   -2.7042    0.0000 O   0  0
    8.2327   -1.5892    0.0000 N   0  0
    8.9425   -2.0097    0.0000 C   0  0
    9.0163   -2.8303    0.0000 N   0  0
    9.8213   -3.0109    0.0000 N   0  0
   10.2418   -2.3010    0.0000 C   0  0
    9.6966   -1.6819    0.0000 S   0  0
   11.0632   -2.2239    0.0000 C   0  0
   11.5407   -2.8967    0.0000 C   0  0
   11.4071   -1.4740    0.0000 C   0  0
    1.7625   -3.7125    0.0000 C   0  0
    1.0517   -3.2925    0.0000 C   0  0
    0.3353   -3.6993    0.0000 C   0  0
    0.3293   -4.5248    0.0000 C   0  0
    1.0457   -4.9417    0.0000 C   0  0
    1.7591   -4.5325    0.0000 C   0  0
    1.0458   -2.4667    0.0000 O   0  0
    1.0431   -5.7667    0.0000 C   0  0
    0.3273   -6.1770    0.0000 F   0  0
    1.7563   -6.1814    0.0000 F   0  0
    1.0375   -6.5917    0.0000 F   0  0
    0.2166   -2.4667    0.0000 C   0  0
 15 16  1  0
 16 17  2  0
 17 18  1  0
 18 19  2  0
 19 20  1  0
 20 16  1  0
 19 21  1  0
 21 22  1  0
 21 23  1  0
  1 24  1  0
  1  2  2  0
 24 25  2  0
  1  3  1  0
 25 26  1  0
  4  5  2  0
 26 27  2  0
  5  6  1  0
 27 28  1  0
  6  7  2  0
 28 29  2  0
 29 24  1  0
  7  8  1  0
  8  9  2  0
  9  4  1  0
 25 30  1  0
  5 10  1  0
  8 11  1  0
 10 12  1  0
 28 31  1  0
 12  3  1  0
 31 32  1  0
 11 13  2  0
 31 33  1  0
 11 14  2  0
 31 34  1  0
 11 15  1  0
 30 35  1  0
M  END
>  <ID_NEW>
CPDPP3354

>  <pEC50>
6.033460330543915

$$$$

  SciTegic12180813012D

 40 44  0  0  0  0            999 V2000
   -4.7473   -1.1708    0.0000 C   0  0
   -4.7484   -1.7981    0.0000 C   0  0
   -4.2044   -2.1110    0.0000 C   0  0
   -3.6630   -1.7977    0.0000 C   0  0
   -3.6659   -1.1671    0.0000 C   0  0
   -4.2062   -0.8580    0.0000 C   0  0
   -5.2897   -2.1106    0.0000 C   0  0
   -5.8310   -1.7980    0.0000 F   0  0
   -5.2898   -2.7356    0.0000 F   0  0
   -5.4514   -1.5069    0.0000 F   0  0
   -3.1259   -0.8523    0.0000 C   0  0
   -2.5524   -1.1026    0.0000 N   0  0
   -2.1362   -0.6364    0.0000 C   0  0
   -2.4510   -0.0964    0.0000 C   0  0
   -3.0618   -0.2290    0.0000 S   0  0
   -1.5143   -0.6990    0.0000 C   0  0
   -2.1993    0.4757    0.0000 C   0  0
   -1.5780    0.5437    0.0000 O   0  0
   -1.3263    1.1158    0.0000 C   0  0
   -0.7047    1.1827    0.0000 C   0  0
   -0.4530    1.7541    0.0000 C   0  0
   -0.8227    2.2589    0.0000 C   0  0
   -1.4470    2.1885    0.0000 C   0  0
   -1.6958    1.6169    0.0000 C   0  0
    0.1683    1.8218    0.0000 O   0  0
    0.5376    1.3176    0.0000 C   0  0
   -0.5717    2.8313    0.0000 C   0  0
    0.0495    2.9001    0.0000 N   0  0
    0.4875    3.3500    0.0000 C   0  0
   -0.0073    3.7973    0.0000 O   0  0
   -0.8461    3.4223    0.0000 N   0  0
    1.1183    3.5131    0.0000 O   0  0
   -1.2577   -1.2689    0.0000 N   0  0
   -1.6239   -1.7740    0.0000 C   0  0
   -1.3697   -2.3420    0.0000 C   0  0
   -0.7479   -2.4079    0.0000 S   0  0
   -0.3811   -1.9010    0.0000 C   0  0
   -0.6360   -1.3282    0.0000 C   0  0
   -1.0667   -2.9416    0.0000 O   0  0
   -0.2125   -2.7166    0.0000 O   0  0
  1  2  2  0
  2  3  1  0
  3  4  2  0
  4  5  1  0
  5  6  2  0
  6  1  1  0
  2  7  1  0
  7  8  1  0
  7  9  1  0
  7 10  1  0
  5 11  1  0
 11 12  2  0
 12 13  1  0
 13 14  2  0
 14 15  1  0
 15 11  1  0
 13 16  1  0
 14 17  1  0
 17 18  1  0
 18 19  1  0
 19 20  2  0
 20 21  1  0
 21 22  2  0
 22 23  1  0
 23 24  2  0
 24 19  1  0
 21 25  1  0
 25 26  1  0
 22 27  1  0
 27 28  1  0
 28 29  1  0
 29 30  1  0
 27 31  2  0
 31 30  1  0
 29 32  2  0
 16 33  1  0
 33 34  1  0
 33 38  1  0
 34 35  1  0
 35 36  1  0
 36 37  1  0
 37 38  1  0
 36 39  2  0
 36 40  2  0
M  END
>  <ID_NEW>
CPDPP3355

>  <pEC50>
6.0320868758614905

$$$$

  -MTS-   10172316532D 0   0.00000     0.00000     0

 36 39  0  0  0  0  0  0  0  0999 V2000
    3.2310    2.6370    0.0000 C   0  0  0  0  0  0  0  0  0  0  0  0
    3.9070    3.1050    0.0000 S   0  0  0  0  0  0  0  0  0  0  0  0
    3.4810    1.8400    0.0000 N   0  0  0  0  0  0  0  0  0  0  0  0
    4.2940    1.8260    0.0000 N   0  0  0  0  0  0  0  0  0  0  0  0
    4.5640    2.6060    0.0000 C   0  0  0  0  0  0  0  0  0  0  0  0
    5.3650    2.8320    0.0000 C   0  0  0  0  0  0  0  0  0  0  0  0
    6.1580    3.0570    0.0000 F   0  0  0  0  0  0  0  0  0  0  0  0
    5.1390    3.6240    0.0000 F   0  0  0  0  0  0  0  0  0  0  0  0
    5.5880    2.0400    0.0000 F   0  0  0  0  0  0  0  0  0  0  0  0
    2.4860    2.9840    0.0000 N   0  0  0  0  0  0  0  0  0  0  0  0
    1.7980    2.5210    0.0000 S   0  0  0  0  0  0  0  0  0  0  0  0
    1.3350    3.2130    0.0000 O   0  0  0  0  0  0  0  0  0  0  0  0
    2.2620    1.8310    0.0000 O   0  0  0  0  0  0  0  0  0  0  0  0
    1.1080    2.0550    0.0000 C   0  0  0  0  0  0  0  0  0  0  0  0
   -0.3250    2.0480    0.0000 C   0  0  0  0  0  0  0  0  0  0  0  0
   -0.3250    1.2320    0.0000 C   0  0  0  0  0  0  0  0  0  0  0  0
    0.3900    2.4720    0.0000 C   0  0  0  0  0  0  0  0  0  0  0  0
    0.3920    0.8120    0.0000 C   0  0  0  0  0  0  0  0  0  0  0  0
    1.1160    1.2380    0.0000 C   0  0  0  0  0  0  0  0  0  0  0  0
   -1.0410    0.8220    0.0000 C   0  0  1  0  0  0  0  0  0  0  0  0
   -1.7970    1.1600    0.0000 C   0  0  1  0  0  0  0  0  0  0  0  0
   -2.3510    0.5480    0.0000 C   0  0  0  0  0  0  0  0  0  0  0  0
   -1.9410   -0.1670    0.0000 C   0  0  0  0  0  0  0  0  0  0  0  0
   -1.1340    0.0010    0.0000 C   0  0  0  0  0  0  0  0  0  0  0  0
   -1.9670    1.9670    0.0000 N   0  0  0  0  0  0  0  0  0  0  0  0
   -2.7510    2.2240    0.0000 C   0  0  0  0  0  0  0  0  0  0  0  0
   -2.9190    3.0310    0.0000 N   0  0  0  0  0  0  0  0  0  0  0  0
   -3.7030    3.2880    0.0000 C   0  0  0  0  0  0  0  0  0  0  0  0
   -4.3180    2.7370    0.0000 C   0  0  0  0  0  0  0  0  0  0  0  0
   -4.1450    1.9260    0.0000 C   0  0  0  0  0  0  0  0  0  0  0  0
   -3.3620    1.6730    0.0000 C   0  0  0  0  0  0  0  0  0  0  0  0
   -3.1890    0.8660    0.0000 Cl  0  0  0  0  0  0  0  0  0  0  0  0
   -5.1060    2.9920    0.0000 C   0  0  0  0  0  0  0  0  0  0  0  0
   -5.8200    3.2240    0.0000 F   0  0  0  0  0  0  0  0  0  0  0  0
   -5.4170    3.7960    0.0000 F   0  0  0  0  0  0  0  0  0  0  0  0
   -5.8310    2.5250    0.0000 F   0  0  0  0  0  0  0  0  0  0  0  0
 10  1  1  0  0  0  0
  1  2  1  0  0  0  0
  2  5  1  0  0  0  0
  4  3  1  0  0  0  0
 10 11  1  0  0  0  0
 11 12  2  0  0  0  0
 11 13  2  0  0  0  0
 11 14  1  0  0  0  0
 14 19  1  0  0  0  0
 15 16  2  0  0  0  0
 15 17  1  0  0  0  0
 16 18  1  0  0  0  0
 17 14  2  0  0  0  0
 18 19  2  0  0  0  0
 20 16  1  6  0  0  0
 20 21  1  0  0  0  0
 21 22  1  0  0  0  0
 22 23  1  0  0  0  0
 23 24  1  0  0  0  0
 24 20  1  0  0  0  0
 21 25  1  1  0  0  0
  3  1  2  0  0  0  0
  4  5  2  0  0  0  0
  5  6  1  0  0  0  0
  6  7  1  0  0  0  0
  6  8  1  0  0  0  0
  6  9  1  0  0  0  0
 25 26  1  0  0  0  0
 26 27  2  0  0  0  0
 27 28  1  0  0  0  0
 28 29  2  0  0  0  0
 29 30  1  0  0  0  0
 30 31  2  0  0  0  0
 31 26  1  0  0  0  0
 31 32  1  0  0  0  0
 33 34  1  0  0  0  0
 33 35  1  0  0  0  0
 33 36  1  0  0  0  0
 29 33  1  0  0  0  0
V   20 M1
V   21 M1
M  END
>  <ID_NEW>
CPDPP3356

>  <pEC50>
6.025775255370278

$$$$

  SciTegic12180813012D

 32 35  0  0  0  0            999 V2000
   -4.5622    1.4781    0.0000 C   0  0
   -4.1184    0.7799    0.0000 C   0  0
   -3.2937    0.8159    0.0000 C   0  0
   -2.9118    1.5496    0.0000 C   0  0
   -3.3607    2.2484    0.0000 C   0  0
   -4.1838    2.2088    0.0000 C   0  0
   -5.3864    1.4417    0.0000 O   0  0
   -5.8300    2.1373    0.0000 C   0  0
   -2.0877    1.5871    0.0000 C   0  0
   -1.5745    0.9384    0.0000 N   0  0
   -0.8022    1.2287    0.0000 C   0  0
   -0.8398    2.0529    0.0000 S   0  0
   -1.6352    2.2718    0.0000 C   0  0
   -0.1134    0.7747    0.0000 N   0  0
    0.6242    1.1442    0.0000 C   0  0
    1.3130    0.6901    0.0000 C   0  0
    2.0506    1.0596    0.0000 C   0  0
    2.7361    0.6047    0.0000 C   0  0
    3.4732    0.9736    0.0000 C   0  0
    3.5225    1.7980    0.0000 C   0  0
    2.8287    2.2522    0.0000 C   0  0
    2.0944    1.8808    0.0000 C   0  0
    4.2596    2.1684    0.0000 C   0  0
   -0.1623   -0.0489    0.0000 C   0  0
   -0.8999   -0.4184    0.0000 C   0  0
   -0.9487   -1.2419    0.0000 C   0  0
   -1.6864   -1.6114    0.0000 C   0  0
    4.9630    1.8580    0.0000 N   0  0
    5.4766    2.4298    0.0000 O   0  0
    5.0908    3.0946    0.0000 C   0  0
    4.3426    2.9356    0.0000 N   0  0
    5.4042    3.7984    0.0000 O   0  0
 14 15  1  0
 15 16  1  0
 16 17  1  0
 17 18  2  0
 18 19  1  0
 19 20  2  0
 20 21  1  0
 21 22  2  0
 22 17  1  0
 20 23  1  0
 14 24  1  0
 24 25  1  0
 25 26  1  0
 26 27  1  0
  1  2  2  0
  2  3  1  0
  3  4  2  0
  4  5  1  0
  5  6  2  0
  6  1  1  0
  1  7  1  0
  7  8  1  0
  4  9  1  0
  9 10  1  0
 10 11  2  0
 11 12  1  0
 12 13  1  0
 13  9  2  0
 11 14  1  0
 23 28  2  0
 28 29  1  0
 29 30  1  0
 30 31  1  0
 31 23  1  0
 30 32  2  0
M  END
>  <ID_NEW>
CPDPP3357

>  <pEC50>
6.025050868714701

$$$$

  SciTegic12180812592D

 38 41  0  0  0  0            999 V2000
    7.8147   -5.1029    0.0000 C   0  0
    8.6482   -4.9348    0.0000 C   0  0
    8.9215   -4.1310    0.0000 C   0  0
    8.3614   -3.4910    0.0000 C   0  0
    7.5278   -3.6550    0.0000 C   0  0
    7.2544   -4.4630    0.0000 C   0  0
    9.2084   -5.5790    0.0000 C   0  0
    1.8402   -5.8939    0.0000 C   0  0
    2.0896   -6.7055    0.0000 C   0  0
    2.9194   -6.8944    0.0000 C   0  0
    3.4997   -6.2676    0.0000 C   0  0
    3.2462   -5.4560    0.0000 C   0  0
    2.4163   -5.2671    0.0000 C   0  0
    3.8223   -4.8292    0.0000 C   0  0
    1.5134   -7.3323    0.0000 O   0  0
    4.6703   -4.9300    0.0000 N   0  0
    5.0228   -4.1551    0.0000 C   0  0
    4.4002   -3.5790    0.0000 C   0  0
    3.6542   -3.9956    0.0000 O   0  0
    4.4968   -2.7351    0.0000 C   0  0
    5.8564   -3.9912    0.0000 C   0  0
    6.4167   -4.6311    0.0000 O   0  0
    1.7670   -8.1438    0.0000 C   0  0
    3.8156   -2.2255    0.0000 N   0  0
    3.9164   -1.3775    0.0000 C   0  0
    3.2350   -0.8679    0.0000 C   0  0
    3.3358   -0.0241    0.0000 O   0  0
    2.6504    0.4855    0.0000 C   0  0
    3.0334   -2.5598    0.0000 C   0  0
    2.3520   -2.0502    0.0000 C   0  0
    1.5740   -2.3885    0.0000 O   0  0
    0.8885   -1.8789    0.0000 C   0  0
    9.7547   -3.9618    0.0000 C   0  0
   10.3195   -4.6028    0.0000 N   0  0
   11.1038   -4.2637    0.0000 O   0  0
   11.0236   -3.4130    0.0000 C   0  0
   10.1898   -3.2265    0.0000 N   0  0
   11.6042   -2.8250    0.0000 O   0  0
  9 15  1  0
 17 21  1  0
 21 22  1  0
 11 12  1  0
 15 23  1  0
  9 10  1  0
 14 16  2  0
 12 13  2  0
 13  8  1  0
  8  9  2  0
 12 14  1  0
 16 17  1  0
 27 28  1  0
 25 26  1  0
 24 29  1  0
 24 25  1  0
 29 30  1  0
 26 27  1  0
 30 31  1  0
 31 32  1  0
 20 24  1  0
  6 22  1  0
  2  3  1  0
  5  6  2  0
  6  1  1  0
  1  2  2  0
  3  4  2  0
  2  7  1  0
  3 33  1  0
  4  5  1  0
 33 34  2  0
 17 18  2  0
 18 19  1  0
 19 14  1  0
 10 11  2  0
 34 35  1  0
 35 36  1  0
 36 37  1  0
 37 33  1  0
 18 20  1  0
 36 38  2  0
M  END
>  <ID_NEW>
CPDPP3358

>  <pEC50>
6.013362987601793

$$$$

  SciTegic12180812562D

 36 39  0  0  0  0            999 V2000
    3.6708    2.9709    0.0000 N   0  0
    0.6084    1.9167    0.0000 C   0  0
    2.0536    1.9210    0.0000 C   0  0
    2.0495    2.7514    0.0000 C   0  0
    1.3232    3.1600    0.0000 C   0  0
    0.6066    2.7416    0.0000 C   0  0
    2.8458    2.9709    0.0000 S   0  0
    2.8416    3.7959    0.0000 O   0  0
    2.8416    2.1459    0.0000 O   0  0
    4.3042    2.4331    0.0000 C   0  0
    4.2423    1.6063    0.0000 N   0  0
    5.0098    1.2932    0.0000 N   0  0
    5.5476    1.9225    0.0000 C   0  0
    5.1098    2.6285    0.0000 S   0  0
    6.3651    1.7844    0.0000 C   0  0
    1.3375    1.5042    0.0000 C   0  0
   -0.1917    1.7042    0.0000 O   0  0
   -5.7473    1.0876    0.0000 C   0  0
   -5.7484    0.2602    0.0000 C   0  0
   -5.0336   -0.1526    0.0000 C   0  0
   -4.3172    0.2607    0.0000 C   0  0
   -4.3200    1.0912    0.0000 C   0  0
   -5.0354    1.5004    0.0000 C   0  0
   -5.0338   -0.9776    0.0000 C   0  0
   -3.6071    1.5064    0.0000 C   0  0
   -2.8502    1.1702    0.0000 S   0  0
   -2.3005    1.7854    0.0000 C   0  0
   -2.7157    2.4984    0.0000 C   0  0
   -3.5220    2.3237    0.0000 N   0  0
   -2.3831    3.2533    0.0000 C   0  0
   -5.7484   -1.3900    0.0000 F   0  0
   -4.3194   -1.3903    0.0000 F   0  0
   -5.8306   -0.7639    0.0000 F   0  0
   -1.7208    1.2042    0.0000 C   0  0
    6.8333    1.1083    0.0000 C   0  0
    6.8958    2.4208    0.0000 C   0  0
 11 12  1  0
 12 13  2  0
 13 14  1  0
 14 10  1  0
 13 15  1  0
  4  5  1  0
 15 36  1  0
 15 35  1  0
  5  6  2  0
  6  2  1  0
  4  7  1  0
  7  8  2  0
  7  9  2  0
  7  1  1  0
  1 10  1  0
 10 11  2  0
 16  3  1  0
  3  4  2  0
  2 16  2  0
  2 17  1  0
 18 19  2  0
 19 20  1  0
 20 21  2  0
 21 22  1  0
 22 23  2  0
 23 18  1  0
 20 24  1  0
 22 25  1  0
 25 26  1  0
 26 27  1  0
 27 28  2  0
 28 29  1  0
 29 25  2  0
 28 30  1  0
 24 31  1  0
 24 32  1  0
 24 33  1  0
 27 34  1  0
 17 34  1  0
M  END
>  <ID_NEW>
CPDPP3359

>  <pEC50>
6.010960335677144

$$$$

  SciTegic12180812472D

 33 35  0  0  0  0            999 V2000
    1.0981    4.4008    0.0000 C   0  0
   -0.3546    4.0275    0.0000 C   0  0
   -0.7577    2.5827    0.0000 C   0  0
    0.2920    1.5112    0.0000 C   0  0
    1.7448    1.8845    0.0000 C   0  0
    2.1479    3.3293    0.0000 C   0  0
   -1.4044    5.0990    0.0000 C   0  0
    2.7945    0.8130    0.0000 S   0  0
   -2.8572    4.7256    0.0000 C   0  0
   -3.9069    5.7971    0.0000 N   0  0
    3.6422   -0.4245    0.0000 O   0  0
    1.6356   -0.1393    0.0000 O   0  0
    4.1012    1.5497    0.0000 N   0  0
    5.3925    0.7864    0.0000 C   0  0
    5.5339   -0.7069    0.0000 N   0  0
    6.9979   -1.0338    0.0000 N   0  0
    7.7612    0.2574    0.0000 C   0  0
    6.7690    1.3824    0.0000 S   0  0
    9.2545    0.3989    0.0000 C   0  0
    9.8786    1.7629    0.0000 C   0  0
   10.1237   -0.8236    0.0000 C   0  0
   -7.0561    9.0116    0.0000 C   0  0
   -8.5088    8.6382    0.0000 C   0  0
   -8.9119    7.1934    0.0000 N   0  0
   -7.8622    6.1219    0.0000 C   0  0
   -6.4094    6.4953    0.0000 C   0  0
   -6.0063    7.9401    0.0000 C   0  0
   -9.5586    9.7097    0.0000 O   0  0
  -11.0114    9.3364    0.0000 C   0  0
   -8.2653    4.6771    0.0000 O   0  0
   -9.7181    4.3038    0.0000 C   0  0
   -5.3597    5.4238    0.0000 C   0  0
   -5.7628    3.9790    0.0000 O   0  0
  7  9  1  0
  9 10  1  0
  8 11  2  0
  8 12  2  0
  8 13  1  0
 13 14  1  0
 14 15  2  0
 15 16  1  0
 16 17  2  0
 17 18  1  0
 18 14  1  0
 17 19  1  0
 19 20  1  0
 19 21  1  0
  1  2  2  0
  2  3  1  0
  3  4  2  0
  4  5  1  0
  5  6  2  0
  6  1  1  0
  2  7  1  0
  5  8  1  0
 22 23  2  0
 23 28  1  0
 24 25  2  0
 28 29  1  0
 25 30  1  0
 25 26  1  0
 30 31  1  0
 23 24  1  0
 26 32  1  0
 26 27  2  0
 32 33  2  0
 27 22  1  0
 10 32  1  0
M  END
>  <ID_NEW>
CPDPP3360

>  <pEC50>
6.004275700238786

$$$$

  SciTegic12180813082D

 37 39  0  0  0  0            999 V2000
   -1.5387    2.6559    0.0000 C   0  0
   -0.8434    3.0999    0.0000 S   0  0
   -0.3981    2.4096    0.0000 O   0  0
   -1.2889    3.7981    0.0000 O   0  0
   -0.1506    3.5485    0.0000 N   0  0
   -4.3830    1.8154    0.0000 C   0  0
   -3.6696    1.4039    0.0000 C   0  0
   -2.9582    1.8216    0.0000 C   0  0
   -2.2441    1.4131    0.0000 C   0  0
   -1.5290    1.8301    0.0000 C   0  0
   -2.2571    3.0630    0.0000 C   0  0
   -2.9651    2.6436    0.0000 C   0  0
    0.5840    3.1728    0.0000 C   0  0
    0.7097    2.3580    0.0000 S   0  0
    1.5242    2.2278    0.0000 C   0  0
    1.8999    2.9623    0.0000 N   0  0
    1.3131    3.5466    0.0000 N   0  0
    1.8977    1.4922    0.0000 C   0  0
    1.4473    0.8009    0.0000 C   0  0
    2.7215    1.4477    0.0000 C   0  0
   -5.0991    0.5731    0.0000 C   0  0
   -5.1008   -1.0642    0.0000 C   0  0
   -4.3878   -0.6499    0.0000 C   0  0
   -4.3905    0.1684    0.0000 C   0  0
   -5.8116   -0.6528    0.0000 C   0  0
   -5.8109    0.1652    0.0000 N   0  0
   -3.6835    0.5804    0.0000 Cl  0  0
   -5.0957   -1.8878    0.0000 C   0  0
   -5.0951   -2.6351    0.0000 F   0  0
   -5.7605   -2.4306    0.0000 F   0  0
   -4.4300   -2.4295    0.0000 F   0  0
   -5.0987    1.3935    0.0000 N   0  0
   -5.8332    1.8217    0.0000 C   0  0
   -5.8329    2.6730    0.0000 C   0  0
   -5.0922    3.0924    0.0000 C   0  0
   -4.3587    2.6606    0.0000 C   0  0
   -3.6180    3.0800    0.0000 C   0  0
 11 12  2  0
 12  8  1  0
  5 13  1  0
 13 14  1  0
 14 15  1  0
 15 16  2  0
 16 17  1  0
 17 13  2  0
 15 18  1  0
 18 19  1  0
 18 20  1  0
  1  2  1  0
  2  3  2  0
  2  4  2  0
  2  5  1  0
 21 32  1  0
 32  6  1  0
  6  7  1  0
  7  8  1  0
  8  9  2  0
  9 10  1  0
 10  1  2  0
  1 11  1  0
 21 26  2  0
 25 22  2  0
 22 23  1  0
 23 24  2  0
 24 21  1  0
 25 26  1  0
 24 27  1  0
 28 29  1  0
 28 30  1  0
 28 31  1  0
 22 28  1  0
 32 33  1  0
 34 35  1  0
 33 34  1  0
 35 36  1  0
 36 37  1  0
M  END
>  <ID_NEW>
CPDPP3361

>  <pEC50>
6.000896977443826

$$$$

  SciTegic12180812532D

 32 34  0  0  0  0            999 V2000
    3.7569    2.9542    0.0000 C   0  0
    3.7557    2.1268    0.0000 C   0  0
    4.4706    1.7140    0.0000 C   0  0
    5.1870    2.1273    0.0000 C   0  0
    5.1841    2.9578    0.0000 C   0  0
    4.4688    3.3670    0.0000 C   0  0
    4.4663    4.1997    0.0000 C   0  0
    3.0423    3.3665    0.0000 O   0  0
    5.9021    1.7159    0.0000 S   0  0
    6.6958    1.9333    0.0000 C   0  0
    2.3250    2.9583    0.0000 C   0  0
    1.6131    3.3753    0.0000 C   0  0
    0.8961    2.9673    0.0000 O   0  0
    1.6183    4.2081    0.0000 O   0  0
    7.2824    1.3532    0.0000 C   0  0
    7.1595    0.5411    0.0000 S   0  0
    7.8966    0.1706    0.0000 C   0  0
    8.4768    0.7573    0.0000 N   0  0
    8.0981    1.4902    0.0000 C   0  0
    8.4671    2.2280    0.0000 C   0  0
    8.0302   -0.6435    0.0000 C   0  0
    7.3901   -1.1628    0.0000 C   0  0
    7.5232   -1.9762    0.0000 C   0  0
    8.2957   -2.2683    0.0000 C   0  0
    8.9356   -1.7408    0.0000 C   0  0
    8.7992   -0.9293    0.0000 C   0  0
    8.4304   -3.0823    0.0000 C   0  0
    9.2542   -3.0792    0.0000 F   0  0
    7.7125   -3.4875    0.0000 F   0  0
    8.6417   -3.8750    0.0000 F   0  0
    5.3125    1.1333    0.0000 O   0  0
    6.3083    1.0042    0.0000 O   0  0
 15 16  1  0
  3  4  2  0
  1  8  1  0
  4  9  1  0
 16 17  1  0
 17 18  2  0
 18 19  1  0
 19 15  2  0
  4  5  1  0
 19 20  1  0
  9 10  1  0
 17 21  1  0
  2  3  1  0
 21 22  2  0
  8 11  1  0
 22 23  1  0
  5  6  2  0
 23 24  2  0
 11 12  1  0
 24 25  1  0
  6  1  1  0
 25 26  2  0
 26 21  1  0
 12 13  1  0
 24 27  1  0
  1  2  2  0
 27 28  1  0
 12 14  2  0
 27 29  1  0
  6  7  1  0
 27 30  1  0
  9 31  2  0
 10 15  1  0
  9 32  2  0
M  END
>  <ID_NEW>
CPDPP3362

>  <pEC50>
5.9993123199325336

$$$$

  SciTegic12180813532D

 33 38  0  0  0  0            999 V2000
    8.7846   -5.9335    0.0000 C   0  0
    8.5227   -6.7151    0.0000 N   0  0
    9.1841   -7.2001    0.0000 C   0  0
    9.8584   -6.7222    0.0000 O   0  0
    9.6046   -5.9386    0.0000 N   0  0
    9.1795   -8.0289    0.0000 O   0  0
    8.5361   -5.1507    0.0000 C   0  0
    4.5920   -0.5112    0.0000 C   0  0
    4.5949    0.3158    0.0000 C   0  0
    3.8751    0.7255    0.0000 C   0  0
    3.8776   -0.9224    0.0000 C   0  0
    3.1657   -0.5122    0.0000 C   0  0
    3.1642    0.3163    0.0000 C   0  0
    2.3808    0.5707    0.0000 O   0  0
    1.8989   -0.0953    0.0000 C   0  0
    2.3792   -0.7642    0.0000 C   0  0
    9.0888   -4.5430    0.0000 C   0  0
    8.8363   -3.7567    0.0000 C   0  0
    8.0313   -3.5804    0.0000 C   0  0
    7.4782   -4.1933    0.0000 C   0  0
    7.7308   -4.9781    0.0000 C   0  0
    7.7781   -2.7924    0.0000 S   0  0
    6.9899   -3.0482    0.0000 O   0  0
    8.5658   -2.5413    0.0000 O   0  0
    7.5223   -2.0069    0.0000 N   0  0
    5.3069   -0.9249    0.0000 C   0  0
    5.3057   -1.7524    0.0000 C   0  0
    6.0205   -2.1652    0.0000 C   0  0
    6.0229   -0.5122    0.0000 C   0  0
    6.7383   -0.9214    0.0000 C   0  0
    6.7390   -1.7520    0.0000 C   0  0
    8.0042   -1.3396    0.0000 C   0  0
    7.5228   -0.6697    0.0000 C   0  0
  3  4  1  0
  4  5  1  0
  5  1  2  0
  3  6  2  0
  1  2  1  0
  2  3  1  0
  7  1  1  0
 16 12  1  0
 13 14  1  0
 11  8  1  0
 12 13  1  0
  9 10  1  0
 10 13  2  0
  8  9  2  0
 12 11  2  0
 14 15  1  0
 15 16  1  0
 22 24  2  0
 21  7  2  0
  7 17  1  0
 17 18  2  0
 19 20  2  0
 19 22  1  0
 20 21  1  0
 22 23  2  0
 18 19  1  0
 27 28  1  0
 28 31  2  0
 26 27  2  0
 30 29  2  0
 31 25  1  0
 25 32  1  0
 32 33  1  0
 33 30  1  0
 29 26  1  0
 30 31  1  0
 25 22  1  0
 26  8  1  0
M  END
>  <ID_NEW>
CPDPP3363

>  <pEC50>
5.995972131388414

$$$$

  SciTegic12180812472D

 36 38  0  0  0  0            999 V2000
    6.4172   -5.6962    0.0000 C   0  0
    4.9644   -6.0695    0.0000 C   0  0
    4.5613   -7.5143    0.0000 C   0  0
    5.6110   -8.5858    0.0000 C   0  0
    7.0638   -8.2125    0.0000 C   0  0
    7.4669   -6.7677    0.0000 C   0  0
    3.9146   -4.9980    0.0000 C   0  0
    8.1135   -9.2840    0.0000 S   0  0
    4.3177   -3.5532    0.0000 C   0  0
    3.2680   -2.4817    0.0000 N   0  0
    8.9612  -10.5215    0.0000 O   0  0
    6.9546  -10.2363    0.0000 O   0  0
    9.4202   -8.5473    0.0000 N   0  0
   10.7115   -9.3106    0.0000 C   0  0
   10.8529  -10.8039    0.0000 N   0  0
   12.3169  -11.1308    0.0000 N   0  0
   13.0802   -9.8396    0.0000 C   0  0
   12.0880   -8.7146    0.0000 S   0  0
   14.5735   -9.6981    0.0000 C   0  0
   15.1976   -8.3341    0.0000 C   0  0
   15.4427  -10.9206    0.0000 C   0  0
    2.6213    0.0346    0.0000 C   0  0
    3.0244    1.4794    0.0000 C   0  0
    1.1685   -0.3387    0.0000 C   0  0
    3.6711   -1.0369    0.0000 C   0  0
    1.9747    2.5509    0.0000 C   0  0
    4.4772    1.8528    0.0000 O   0  0
    0.1188    0.7328    0.0000 C   0  0
    5.1239   -0.6635    0.0000 O   0  0
    0.5219    2.1776    0.0000 C   0  0
    4.8803    3.2976    0.0000 C   0  0
   -1.3340    0.3594    0.0000 O   0  0
   -2.3837    1.4309    0.0000 C   0  0
   -3.6904    0.6943    0.0000 F   0  0
   -3.2314    2.6684    0.0000 F   0  0
   -1.2248    2.3832    0.0000 F   0  0
  8 12  2  0
  8 13  1  0
 13 14  1  0
 14 15  2  0
 15 16  1  0
 16 17  2  0
 17 18  1  0
 18 14  1  0
 17 19  1  0
 19 20  1  0
 19 21  1  0
  1  2  2  0
  2  3  1  0
  3  4  2  0
  4  5  1  0
  5  6  2  0
  6  1  1  0
  2  7  1  0
  5  8  1  0
  7  9  1  0
  9 10  1  0
  8 11  2  0
 22 23  1  0
 22 24  2  0
 22 25  1  0
 23 26  2  0
 23 27  1  0
 24 28  1  0
 25 29  2  0
 26 30  1  0
 27 31  1  0
 28 32  1  0
 32 33  1  0
 33 34  1  0
 33 35  1  0
 33 36  1  0
 28 30  2  0
 10 25  1  0
M  END
>  <ID_NEW>
CPDPP3364

>  <pEC50>
5.988154104537929

$$$$

  SciTegic12180812562D

 34 37  0  0  0  0            999 V2000
    1.8116   -4.4272    0.0000 N   0  0
   -1.6998   -0.7211    0.0000 O   0  0
   -0.9292   -1.0908    0.0000 C   0  0
   -0.2272   -0.6111    0.0000 C   0  0
    0.5434   -0.9766    0.0000 C   0  0
    0.6120   -1.8219    0.0000 C   0  0
   -0.0899   -2.3058    0.0000 C   0  0
   -0.8563   -1.9403    0.0000 C   0  0
    1.3798   -2.1916    0.0000 S   0  0
    2.2006   -2.4163    0.0000 O   0  0
    1.6790   -1.3945    0.0000 O   0  0
    1.8781   -3.5775    0.0000 C   0  0
    2.5979   -4.7501    0.0000 N   0  0
    3.1503   -4.1045    0.0000 C   0  0
    2.7073   -3.3762    0.0000 S   0  0
    4.0000   -4.1710    0.0000 C   0  0
    4.4819   -3.4717    0.0000 C   0  0
    4.3676   -4.9411    0.0000 C   0  0
    1.2284   -3.0250    0.0000 N   0  0
   -5.8316    1.6324    0.0000 C   0  0
   -5.3853    2.3578    0.0000 C   0  0
   -4.5348    2.3363    0.0000 C   0  0
   -4.1265    1.5854    0.0000 C   0  0
   -4.5729    0.8600    0.0000 C   0  0
   -5.4276    0.8814    0.0000 C   0  0
   -5.7893    3.1046    0.0000 O   0  0
   -5.3428    3.8301    0.0000 C   0  0
   -4.1647    0.1089    0.0000 C   0  0
   -3.3229   -0.0023    0.0000 N   0  0
   -3.1640   -0.8395    0.0000 C   0  0
   -3.9130   -1.2479    0.0000 C   0  0
   -4.5325   -0.6620    0.0000 O   0  0
   -4.0267   -2.0894    0.0000 C   0  0
   -2.3976   -1.2051    0.0000 C   0  0
  1 12  2  0
  1 13  1  0
 13 14  2  0
 14 15  1  0
 15 12  1  0
 14 16  1  0
  6  7  1  0
 16 17  1  0
 16 18  1  0
 12 19  1  0
  7  8  2  0
  8  3  1  0
  6  9  1  0
  9 10  2  0
  2  3  1  0
  9 11  2  0
  9 19  1  0
  3  4  2  0
  4  5  1  0
  5  6  2  0
 26 27  1  0
 24 28  1  0
 28 29  2  0
 23 24  1  0
 21 22  1  0
 24 25  2  0
 25 20  1  0
 29 30  1  0
 30 31  2  0
 31 32  1  0
 32 28  1  0
 20 21  2  0
 31 33  1  0
 21 26  1  0
 30 34  1  0
 22 23  2  0
  2 34  1  0
M  END
>  <ID_NEW>
CPDPP3365

>  <pEC50>
5.986414372197633

$$$$

  SciTegic12180812492D

 38 42  0  0  0  0            999 V2000
   -4.5972   -2.2500    0.0000 C   0  0
   -4.5984   -3.0774    0.0000 C   0  0
   -3.8836   -3.4903    0.0000 C   0  0
   -3.1671   -3.0769    0.0000 C   0  0
   -3.1700   -2.2464    0.0000 C   0  0
   -3.8854   -1.8373    0.0000 C   0  0
   -5.3132   -3.4893    0.0000 C   0  0
   -5.3138   -4.3143    0.0000 F   0  0
   -5.5261   -2.6923    0.0000 F   0  0
   -2.4571   -1.8312    0.0000 C   0  0
   -1.7044   -2.1656    0.0000 N   0  0
   -1.1547   -1.5504    0.0000 C   0  0
   -1.5699   -0.8374    0.0000 C   0  0
   -2.3762   -1.0121    0.0000 S   0  0
   -1.2372   -0.0825    0.0000 C   0  0
   -0.3339   -1.6335    0.0000 C   0  0
    0.0045   -2.3859    0.0000 C   0  0
    0.8253   -2.4691    0.0000 C   0  0
    1.1604   -3.2216    0.0000 C   0  0
    1.9804   -3.3050    0.0000 C   0  0
    2.4637   -2.6353    0.0000 C   0  0
    2.1211   -1.8801    0.0000 C   0  0
    1.3021   -1.8003    0.0000 C   0  0
   -0.4171    0.0068    0.0000 N   0  0
    0.1323   -0.6031    0.0000 C   0  0
    0.8847   -0.2647    0.0000 C   0  0
   -0.0122    0.7239    0.0000 C   0  0
    0.7945    0.5536    0.0000 C   0  0
    1.3434    1.1664    0.0000 C   0  0
    1.0867    1.9497    0.0000 C   0  0
    0.2760    2.1167    0.0000 C   0  0
   -0.2693    1.5026    0.0000 C   0  0
    1.6360    2.5652    0.0000 O   0  0
    2.4438    2.3973    0.0000 C   0  0
    2.9931    3.0128    0.0000 C   0  0
    3.8008    2.8448    0.0000 O   0  0
    2.7347    3.7963    0.0000 O   0  0
   -5.8333   -3.1875    0.0000 F   0  0
  2  7  1  0
 22 23  2  0
 23 18  1  0
 15 24  1  0
 24 25  1  0
 11 12  1  0
 12 13  2  0
 25 26  2  0
 26 28  1  0
 27 24  1  0
 13 14  1  0
 14 10  1  0
 27 28  2  0
  3  4  2  0
 28 29  1  0
 13 15  1  0
 29 30  2  0
  7 38  1  0
 30 31  1  0
  7  8  1  0
 31 32  2  0
 32 27  1  0
  4  5  1  0
 30 33  1  0
  7  9  1  0
 12 16  1  0
  2  3  1  0
 16 17  1  0
  5 10  1  0
 17 18  1  0
 10 11  2  0
 33 34  1  0
 18 19  2  0
 34 35  1  0
  5  6  2  0
 35 36  2  0
 19 20  1  0
 35 37  1  0
  6  1  1  0
 20 21  2  0
  1  2  2  0
 21 22  1  0
M  END
>  <ID_NEW>
CPDPP3366

>  <pEC50>
5.975352753515758

$$$$

  SciTegic12180813032D

 34 37  0  0  0  0            999 V2000
   -4.3183    1.5921    0.0000 C   0  0
   -4.6934    0.7814    0.0000 C   0  0
   -4.1808    0.0541    0.0000 C   0  0
   -3.2927    0.1335    0.0000 C   0  0
   -2.9214    0.9399    0.0000 C   0  0
   -3.4340    1.6671    0.0000 C   0  0
   -5.5773    0.7023    0.0000 Cl  0  0
   -2.0416    1.0189    0.0000 C   0  0
   -1.4602    0.3506    0.0000 N   0  0
   -0.6446    0.6967    0.0000 C   0  0
   -0.7241    1.5807    0.0000 S   0  0
   -1.5845    1.7805    0.0000 C   0  0
    0.1125    0.2435    0.0000 N   0  0
    0.8890    0.6748    0.0000 C   0  0
    1.6502    0.2174    0.0000 C   0  0
    2.4268    0.6483    0.0000 C   0  0
    3.1884    0.1913    0.0000 C   0  0
    3.9608    0.6223    0.0000 C   0  0
    3.9760    1.5064    0.0000 C   0  0
    3.2185    1.9638    0.0000 C   0  0
    2.4420    1.5325    0.0000 C   0  0
    4.7483    1.9377    0.0000 C   0  0
    0.8544   -1.0940    0.0000 C   0  0
    0.0972   -0.6407    0.0000 C   0  0
    0.8391   -1.9781    0.0000 O   0  0
    1.5962   -2.4314    0.0000 C   0  0
    5.5529    1.5686    0.0000 N   0  0
    6.1581    2.2188    0.0000 O   0  0
    5.7268    2.9953    0.0000 C   0  0
    4.8551    2.8249    0.0000 N   0  0
    6.1014    3.7965    0.0000 O   0  0
    2.3714   -2.0024    0.0000 C   0  0
    3.1296   -2.4623    0.0000 O   0  0
    3.9044   -2.0298    0.0000 C   0  0
 15 16  1  0
 16 17  2  0
  5  8  1  0
 17 18  1  0
  8  9  1  0
 18 19  2  0
  3  4  2  0
 19 20  1  0
  1  2  2  0
 20 21  2  0
 21 16  1  0
  4  5  1  0
 19 22  1  0
  9 10  2  0
 10 11  1  0
 11 12  1  0
 12  8  2  0
  5  6  2  0
 23 24  1  0
 23 25  1  0
 25 26  1  0
 13 24  1  0
 10 13  1  0
  6  1  1  0
 13 14  1  0
  2  3  1  0
 14 15  1  0
  2  7  1  0
 22 27  2  0
 27 28  1  0
 28 29  1  0
 29 30  1  0
 30 22  1  0
 29 31  2  0
 26 32  1  0
 32 33  1  0
 33 34  1  0
M  END
>  <ID_NEW>
CPDPP3367

>  <pEC50>
5.973499386573969

$$$$

  SciTegic12180812472D

 37 40  0  0  0  0            999 V2000
    4.7292    1.0819    0.0000 N   0  0
    5.2769    1.6988    0.0000 N   0  0
    4.8610    2.4114    0.0000 C   0  0
    4.0526    2.2340    0.0000 S   0  0
    3.9751    1.4136    0.0000 C   0  0
    3.2638    0.9957    0.0000 N   0  0
    5.1923    3.1670    0.0000 C   0  0
    6.0123    3.2579    0.0000 C   0  0
    4.7036    3.8317    0.0000 C   0  0
    0.4526    0.0290    0.0000 C   0  0
    1.2767    0.1025    0.0000 C   0  0
    1.6233    0.8517    0.0000 C   0  0
    1.1470    1.5279    0.0000 C   0  0
    0.3201    1.4501    0.0000 C   0  0
   -0.0228    0.7006    0.0000 C   0  0
   -0.8442    0.6238    0.0000 O   0  0
   -1.5630    0.2188    0.0000 C   0  0
    2.4449    0.9259    0.0000 S   0  0
    2.5121    0.1034    0.0000 O   0  0
    2.3673    1.7471    0.0000 O   0  0
   -5.8306   -0.3958    0.0000 C   0  0
   -5.8318   -1.2231    0.0000 C   0  0
   -5.1169   -1.6360    0.0000 C   0  0
   -4.4005   -1.2227    0.0000 C   0  0
   -4.4034   -0.3921    0.0000 C   0  0
   -5.1187    0.0170    0.0000 C   0  0
   -3.6904    0.0231    0.0000 C   0  0
   -2.9336   -0.3132    0.0000 N   0  0
   -2.3838    0.3020    0.0000 C   0  0
   -2.7991    1.0150    0.0000 C   0  0
   -3.6053    0.8403    0.0000 O   0  0
   -2.4664    1.7699    0.0000 C   0  0
   -1.6463    1.8593    0.0000 C   0  0
   -3.6853   -1.6341    0.0000 C   0  0
   -3.6840   -2.4591    0.0000 F   0  0
   -2.9715   -1.2205    0.0000 F   0  0
   -4.2677   -2.2184    0.0000 F   0  0
  1  2  1  0
  2  3  2  0
  3  4  1  0
  4  5  1  0
  5  1  2  0
  5  6  1  0
  3  7  1  0
  7  8  1  0
  7  9  1  0
 10 11  2  0
 11 12  1  0
 12 13  2  0
 13 14  1  0
 14 15  2  0
 15 10  1  0
 15 16  1  0
 17 16  1  0
 12 18  1  0
 18 19  2  0
 18 20  2  0
 18  6  1  0
 21 22  2  0
 22 23  1  0
 23 24  2  0
 24 25  1  0
 25 26  2  0
 26 21  1  0
 25 27  1  0
 27 28  2  0
 28 29  1  0
 29 30  2  0
 30 31  1  0
 31 27  1  0
 30 32  1  0
 32 33  1  0
 24 34  1  0
 34 35  1  0
 34 36  1  0
 34 37  1  0
 29 17  1  0
M  END
>  <ID_NEW>
CPDPP3368

>  <pEC50>
5.966659052551389

$$$$

  SciTegic12180812502D

 35 38  0  0  0  0            999 V2000
   -0.6174    1.7608    0.0000 C   0  0
   -1.0021    1.2653    0.0000 C   0  0
   -0.7632    0.6850    0.0000 C   0  0
   -0.1432    0.6016    0.0000 C   0  0
    0.2403    1.1021    0.0000 C   0  0
    0.0020    1.6773    0.0000 C   0  0
    0.3832    2.1725    0.0000 C   0  0
    1.0027    2.0900    0.0000 N   0  0
    1.3839    2.5853    0.0000 O   0  0
    0.1449    2.7503    0.0000 N   0  0
    0.5261    3.2456    0.0000 C   0  0
    0.4900    3.7987    0.0000 O   0  0
   -1.1449    0.1901    0.0000 S   0  0
   -1.7643    0.2732    0.0000 C   0  0
   -2.1460   -0.2217    0.0000 C   0  0
   -2.7679   -0.2016    0.0000 S   0  0
   -2.9784   -0.7908    0.0000 C   0  0
   -2.4822   -1.1723    0.0000 N   0  0
   -1.9668   -0.8174    0.0000 C   0  0
   -1.3771   -1.0246    0.0000 C   0  0
   -1.2616   -1.6388    0.0000 C   0  0
   -0.6720   -1.8459    0.0000 C   0  0
   -0.5565   -2.4602    0.0000 C   0  0
   -3.5780   -0.9673    0.0000 C   0  0
   -4.0302   -0.5374    0.0000 C   0  0
   -4.6293   -0.7134    0.0000 C   0  0
   -4.7767   -1.3215    0.0000 C   0  0
   -4.3204   -1.7533    0.0000 C   0  0
   -3.7230   -1.5750    0.0000 C   0  0
   -5.3761   -1.4987    0.0000 C   0  0
   -5.8292   -1.0683    0.0000 F   0  0
   -5.5222   -2.1064    0.0000 F   0  0
   -5.3921   -0.8739    0.0000 F   0  0
   -0.9875   -0.4083    0.0000 O   0  0
   -0.5208    0.1917    0.0000 O   0  0
  6  7  1  0
  2  3  1  0
  7  8  2  0
 15 16  1  0
 17 18  2  0
 18 19  1  0
 19 15  2  0
 19 20  1  0
  8  9  1  0
 20 21  1  0
  3  4  2  0
 21 22  1  0
  7 10  1  0
 22 23  1  0
 17 24  1  0
 10 11  1  0
 24 25  2  0
  4  5  1  0
 25 26  1  0
 11 12  2  0
 26 27  2  0
 11  9  1  0
 27 28  1  0
  1  2  2  0
 28 29  2  0
 29 24  1  0
  3 13  1  0
 27 30  1  0
  5  6  2  0
 30 31  1  0
 13 14  1  0
 30 32  1  0
  6  1  1  0
 30 33  1  0
 14 15  1  0
 13 34  2  0
 16 17  1  0
 13 35  2  0
M  END
>  <ID_NEW>
CPDPP3369

>  <pEC50>
5.965850576593563

$$$$

  SciTegic12180812592D

 40 44  0  0  0  0            999 V2000
   -2.5222   -1.6922    0.0000 S   0  0
   -2.2632   -0.9900    0.0000 C   0  0
   -2.8522   -0.5219    0.0000 C   0  0
   -3.4799   -0.9408    0.0000 N   0  0
   -3.2751   -1.6642    0.0000 C   0  0
   -4.9536   -2.7329    0.0000 C   0  0
   -4.6751   -3.4311    0.0000 C   0  0
   -3.9326   -3.5446    0.0000 C   0  0
   -3.4646   -2.9515    0.0000 C   0  0
   -3.7432   -2.2532    0.0000 C   0  0
   -4.4856   -2.1439    0.0000 C   0  0
   -2.8243    0.2268    0.0000 C   0  0
   -1.5398   -0.7851    0.0000 C   0  0
   -1.0003   -1.3127    0.0000 O   0  0
   -5.1431   -4.0243    0.0000 C   0  0
   -4.6935   -4.6276    0.0000 F   0  0
   -5.7055   -4.5213    0.0000 F   0  0
   -5.6882   -3.5072    0.0000 F   0  0
   -0.2768   -1.1078    0.0000 C   0  0
    0.2585   -1.6355    0.0000 C   0  0
    0.9861   -1.4306    0.0000 C   0  0
    1.1744   -0.7024    0.0000 C   0  0
    0.6350   -0.1790    0.0000 C   0  0
   -0.0886   -0.3796    0.0000 C   0  0
    1.8978   -0.5018    0.0000 C   0  0
    1.5214   -1.9583    0.0000 C   0  0
    2.4868   -0.9656    0.0000 N   0  0
    3.1104   -0.5510    0.0000 O   0  0
    2.9097    0.1726    0.0000 C   0  0
    2.1568    0.2047    0.0000 N   0  0
    3.3778    0.7657    0.0000 O   0  0
   -4.0320    2.5377    0.0000 C   0  0
   -3.4043    2.9523    0.0000 N   0  0
   -4.0600    1.7847    0.0000 C   0  0
   -4.6210    3.0015    0.0000 C   0  0
   -3.6091    3.6758    0.0000 C   0  0
   -2.7020    2.6934    0.0000 C   0  0
   -3.4260    1.3822    0.0000 C   0  0
   -4.3620    3.7080    0.0000 C   0  0
   -3.4582    0.6293    0.0000 N   0  0
 19 20  2  0
  1  2  1  0
 20 21  1  0
  3  4  1  0
 21 22  2  0
  4  5  2  0
 22 23  1  0
  5  1  1  0
 23 24  2  0
 24 19  1  0
  6  7  2  0
 22 25  1  0
  7  8  1  0
 21 26  1  0
  8  9  2  0
 25 27  2  0
 27 28  1  0
 28 29  1  0
 29 30  1  0
 30 25  1  0
 29 31  2  0
  9 10  1  0
 10 11  2  0
 11  6  1  0
 10  5  1  0
  3 12  1  0
  2 13  1  0
 13 14  1  0
  7 15  1  0
 15 16  1  0
 15 17  1  0
 15 18  1  0
 14 19  1  0
  2  3  2  0
 32 33  1  0
 32 34  1  0
 32 35  1  0
 33 36  1  0
 33 37  1  0
 34 38  1  0
 35 39  1  0
 38 40  1  0
 36 39  1  0
 12 40  1  0
M  END
>  <ID_NEW>
CPDPP3370

>  <pEC50>
5.950287100779518

$$$$

  SciTegic12180812562D

 31 34  0  0  0  0            999 V2000
    2.3915   -2.1597    0.0000 N   0  0
    2.4580   -1.3102    0.0000 C   0  0
    3.1777   -2.4869    0.0000 N   0  0
    3.7302   -1.8372    0.0000 C   0  0
    3.2872   -1.1089    0.0000 S   0  0
    4.5757   -1.9037    0.0000 C   0  0
    5.0618   -1.1960    0.0000 C   0  0
    4.9433   -2.6696    0.0000 C   0  0
    1.8125   -0.7577    0.0000 N   0  0
   -0.9217    1.7618    0.0000 O   0  0
   -0.4388    1.0596    0.0000 C   0  0
    0.4091    1.1284    0.0000 C   0  0
    0.8931    0.4262    0.0000 C   0  0
    0.5234   -0.3448    0.0000 C   0  0
   -0.3239   -0.4095    0.0000 C   0  0
   -0.8066    0.2927    0.0000 C   0  0
    1.0073   -1.0428    0.0000 S   0  0
    0.2648   -1.4659    0.0000 O   0  0
    1.3596   -1.8198    0.0000 O   0  0
   -4.5191    1.9975    0.0000 C   0  0
   -4.7586    2.8146    0.0000 C   0  0
   -4.1778    3.4326    0.0000 C   0  0
   -3.6904    1.7985    0.0000 C   0  0
   -3.1054    2.4166    0.0000 C   0  0
   -3.3491    3.2336    0.0000 C   0  0
   -2.6430    3.7175    0.0000 O   0  0
   -1.9670    3.1969    0.0000 C   0  0
   -2.2508    2.3951    0.0000 C   0  0
   -5.5914    3.0136    0.0000 O   0  0
   -5.8309    3.8306    0.0000 C   0  0
   -1.7680    1.6929    0.0000 C   0  0
  1  2  2  0
  1  3  1  0
  3  4  2  0
  4  5  1  0
  5  2  1  0
  4  6  1  0
  6  7  1  0
  6  8  1  0
 15 16  2  0
 16 11  1  0
 14 17  1  0
 17 18  2  0
 10 11  1  0
 17 19  2  0
 17  9  1  0
 11 12  2  0
 12 13  1  0
 13 14  2  0
 14 15  1  0
 20 21  2  0
 21 22  1  0
 22 25  2  0
 24 23  2  0
 23 20  1  0
 24 25  1  0
 25 26  1  0
 26 27  1  0
 27 28  2  0
 28 24  1  0
 21 29  1  0
 29 30  1  0
 28 31  1  0
 10 31  1  0
  2  9  1  0
M  END
>  <ID_NEW>
CPDPP3371

>  <pEC50>
5.949457710714278

$$$$

  SciTegic12180813022D

 32 35  0  0  0  0            999 V2000
    6.9653   -3.3666    0.0000 C   0  0
    6.9641   -3.9939    0.0000 C   0  0
    7.5081   -4.3068    0.0000 C   0  0
    8.0495   -3.9935    0.0000 C   0  0
    8.0467   -3.3629    0.0000 C   0  0
    7.5063   -3.0538    0.0000 C   0  0
    8.5866   -3.0481    0.0000 C   0  0
    8.4209   -2.4416    0.0000 N   0  0
    9.1834   -3.2041    0.0000 N   0  0
    9.7209   -2.8874    0.0000 C   0  0
   10.2584   -3.1999    0.0000 O   0  0
    9.4042   -2.3458    0.0000 O   0  0
    8.5917   -4.3044    0.0000 F   0  0
    6.4228   -4.3064    0.0000 O   0  0
    5.8816   -3.9938    0.0000 C   0  0
    5.3401   -4.3042    0.0000 C   0  0
    4.7990   -3.9937    0.0000 S   0  0
    4.3365   -4.4123    0.0000 C   0  0
    4.5917   -4.9817    0.0000 N   0  3
    5.2120   -4.9148    0.0000 C   0  0
    5.6314   -5.3781    0.0000 C   0  0
    3.7248   -4.2840    0.0000 C   0  0
    3.5289   -3.6902    0.0000 C   0  0
    2.9179   -3.5616    0.0000 C   0  0
    2.5002   -4.0275    0.0000 C   0  0
    2.6977   -4.6238    0.0000 C   0  0
    3.3083   -4.7495    0.0000 C   0  0
    1.8883   -3.8999    0.0000 C   0  0
    1.6929   -3.3062    0.0000 F   0  0
    1.4719   -4.3660    0.0000 F   0  0
    2.1699   -3.3419    0.0000 F   0  0
    4.2807   -5.5237    0.0000 O   0  5
  1  2  2  0
  2  3  1  0
  3  4  2  0
  4  5  1  0
  5  6  2  0
  6  1  1  0
  5  7  1  0
  7  8  2  0
  7  9  1  0
  9 10  1  0
 10 11  2  0
 10 12  1  0
 12  8  1  0
  4 13  1  0
  2 14  1  0
 14 15  1  0
 15 16  1  0
 16 17  1  0
 17 18  1  0
 18 19  2  0
 19 20  1  0
 20 16  2  0
 20 21  1  0
 18 22  1  0
 22 23  2  0
 23 24  1  0
 24 25  2  0
 25 26  1  0
 26 27  2  0
 27 22  1  0
 25 28  1  0
 28 29  1  0
 28 30  1  0
 28 31  1  0
 19 32  1  0
M  CHG  2  19   1  32  -1
M  END
>  <ID_NEW>
CPDPP3372

>  <pEC50>
5.934723472828028

$$$$

  SciTegic12180812322D

 37 39  0  0  0  0            999 V2000
    4.5152   -4.0394    0.0000 N   0  0
    5.1235   -3.6853    0.0000 C   0  0
    5.6235   -4.1811    0.0000 C   0  0
    6.1194   -3.6811    0.0000 C   0  0
    6.8035   -3.8621    0.0000 C   0  0
    7.2990   -3.3629    0.0000 C   0  0
    7.1155   -2.6797    0.0000 C   0  0
    6.4268   -2.5030    0.0000 C   0  0
    5.9347   -3.0038    0.0000 C   0  0
    7.6111   -2.1769    0.0000 S   0  0
    7.4277   -1.4936    0.0000 O   0  0
    7.9610   -2.7852    0.0000 O   0  0
    8.2194   -1.8227    0.0000 N   0  0
    8.8277   -2.1727    0.0000 C   0  0
    9.4361   -1.8186    0.0000 S   0  0
   10.0444   -2.1686    0.0000 C   0  0
    9.0111   -2.8519    0.0000 N   0  0
    9.8569   -2.8477    0.0000 N   0  0
   10.7486   -2.1686    0.0000 C   0  0
   11.3569   -1.8144    0.0000 C   0  0
   11.2444   -2.6686    0.0000 C   0  0
    1.0137   -5.2692    0.0000 C   0  0
    1.7134   -4.8633    0.0000 C   0  0
    0.4399   -4.7009    0.0000 F   0  0
    1.4839   -5.9357    0.0000 F   0  0
    0.3983   -5.7929    0.0000 F   0  0
    2.4160   -5.2657    0.0000 C   0  0
    1.7107   -4.0508    0.0000 C   0  0
    3.1157   -4.8555    0.0000 C   0  0
    2.4063   -3.6448    0.0000 C   0  0
    3.1130   -4.0472    0.0000 C   0  0
    3.8085   -3.6371    0.0000 C   0  0
    3.8099   -2.8246    0.0000 O   0  0
    3.8181   -5.2619    0.0000 O   0  0
    3.8250   -6.0703    0.0000 C   0  0
    4.5275   -6.4727    0.0000 C   0  0
    4.5303   -7.2977    0.0000 C   0  0
 14 15  1  0
 15 16  1  0
 14 17  2  0
 16 18  2  0
 17 18  1  0
 16 19  1  0
 19 20  1  0
 19 21  1  0
  1  2  1  0
  2  3  1  0
  3  4  1  0
  4  5  2  0
  5  6  1  0
  6  7  2  0
  7  8  1  0
  8  9  2  0
  9  4  1  0
  7 10  1  0
 10 11  2  0
 10 12  2  0
 10 13  1  0
 13 14  1  0
 23 27  2  0
 23 28  1  0
 27 29  1  0
 28 30  2  0
 29 31  2  0
 31 32  1  0
 32 33  2  0
 32  1  1  0
 30 31  1  0
 22 23  1  0
 22 24  1  0
 29 34  1  0
 22 25  1  0
 34 35  1  0
 22 26  1  0
 35 36  1  0
 36 37  1  0
M  END
>  <ID_NEW>
CPDPP3373

>  <pEC50>
5.934370572795967

$$$$

  SciTegic12180813032D

 42 46  0  0  0  0            999 V2000
    1.2590   -4.1423    0.0000 C   0  0
    2.0838   -4.1264    0.0000 C   0  0
    2.5070   -4.8346    0.0000 C   0  0
    3.3311   -4.8191    0.0000 C   0  0
    3.7306   -4.0963    0.0000 C   0  0
    3.3000   -3.3876    0.0000 C   0  0
    2.4773   -3.4065    0.0000 C   0  0
   -0.1111   -0.9856    0.0000 C   0  0
    0.7634   -0.8198    0.0000 C   0  0
    1.0547    0.0239    0.0000 C   0  0
   -0.4073    0.5242    0.0000 C   0  0
   -0.6934   -0.3154    0.0000 C   0  0
    0.4672    0.6878    0.0000 C   0  0
   -0.9858    1.1912    0.0000 Cl  0  0
    0.7541    1.5233    0.0000 C   0  0
    1.5949    1.7829    0.0000 N   0  0
    1.6096    2.6662    0.0000 O   0  0
    0.7740    2.9531    0.0000 C   0  0
    0.2431    2.2470    0.0000 N   0  0
    0.5150    3.7977    0.0000 O   0  0
   -0.4030   -1.8265    0.0000 O   0  0
    0.5889   -4.6237    0.0000 O   0  0
   -4.1589   -4.4386    0.0000 C   0  0
   -4.5828   -5.1491    0.0000 C   0  0
   -4.1795   -5.8694    0.0000 C   0  0
   -3.3524   -5.8803    0.0000 C   0  0
   -2.9304   -5.1650    0.0000 C   0  0
   -3.3361   -4.4477    0.0000 C   0  0
   -2.1054   -5.1726    0.0000 C   0  0
   -1.6296   -5.8422    0.0000 N   0  0
   -0.8418   -5.5944    0.0000 C   0  0
   -0.8355   -4.7682    0.0000 C   0  0
   -1.6195   -4.5083    0.0000 S   0  0
   -0.1785   -6.0849    0.0000 C   0  0
   -0.1631   -4.2846    0.0000 C   0  0
   -5.4077   -5.1378    0.0000 C   0  0
   -5.8301   -5.8465    0.0000 F   0  0
   -5.8103   -4.4177    0.0000 F   0  0
   -4.8325   -5.7291    0.0000 F   0  0
   -0.2453   -3.4637    0.0000 C   0  0
    0.4245   -2.9820    0.0000 C   0  0
    0.3423   -2.1611    0.0000 C   0  0
  1  2  1  0
  2  3  2  0
  3  4  1  0
  4  5  2  0
  5  6  1  0
  6  7  2  0
  7  2  1  0
  8  9  2  0
 11 12  2  0
 12  8  1  0
  9 10  1  0
 10 13  2  0
 11 13  1  0
 11 14  1  0
 13 15  1  0
 15 16  2  0
 16 17  1  0
 17 18  1  0
 18 19  1  0
 19 15  1  0
 18 20  2  0
  8 21  1  0
 25 26  2  0
 27 29  1  0
 30 31  1  0
 26 27  1  0
 24 25  1  0
 27 28  2  0
 29 30  2  0
 31 32  2  0
 32 33  1  0
 33 29  1  0
 28 23  1  0
 32 35  1  0
 23 24  2  0
 31 34  1  0
 24 36  1  0
 36 37  1  0
 36 38  1  0
 36 39  1  0
 35 22  1  0
 35 40  1  0
 40 41  1  0
 41 42  1  0
 21 42  1  0
 22  1  1  0
M  END
>  <ID_NEW>
CPDPP3374

>  <pEC50>
5.913428380360058

$$$$

  -MTS-   10172316532D 0   0.00000     0.00000     0

 29 32  0  0  0  0  0  0  0  0999 V2000
    3.0570   -4.3840    0.0000 C   0  0  2  0  0  0  0  0  0  0  0  0
    3.7720   -3.9690    0.0000 C   0  0  0  0  0  0  0  0  0  0  0  0
    2.3400   -3.9690    0.0000 C   0  0  0  0  0  0  0  0  0  0  0  0
    1.6290   -4.3810    0.0000 C   0  0  0  0  0  0  0  0  0  0  0  0
    1.6280   -5.2060    0.0000 C   0  0  2  0  0  0  0  0  0  0  0  0
    2.3440   -5.6180    0.0000 C   0  0  0  0  0  0  0  0  0  0  0  0
    3.0610   -5.2050    0.0000 C   0  0  0  0  0  0  0  0  0  0  0  0
    4.5270   -4.2990    0.0000 O   0  0  0  0  0  0  0  0  0  0  0  0
    5.0760   -3.6840    0.0000 C   0  0  0  0  0  0  0  0  0  0  0  0
    4.6610   -2.9710    0.0000 C   0  0  0  0  0  0  0  0  0  0  0  0
    3.8550   -3.1450    0.0000 N   0  0  0  0  0  0  0  0  0  0  0  0
    4.9940   -2.2160    0.0000 C   0  0  0  0  0  0  0  0  0  0  0  0
    5.8970   -3.7670    0.0000 C   0  0  0  0  0  0  0  0  0  0  0  0
    6.2350   -4.5190    0.0000 O   0  0  0  0  0  0  0  0  0  0  0  0
    7.0560   -4.6020    0.0000 C   0  0  0  0  0  0  0  0  0  0  0  0
    7.3900   -5.3560    0.0000 C   0  0  0  0  0  0  0  0  0  0  0  0
    8.2100   -5.4390    0.0000 C   0  0  0  0  0  0  0  0  0  0  0  0
    8.6930   -4.7690    0.0000 C   0  0  0  0  0  0  0  0  0  0  0  0
    8.3500   -4.0140    0.0000 C   0  0  0  0  0  0  0  0  0  0  0  0
    7.5310   -3.9340    0.0000 C   0  0  0  0  0  0  0  0  0  0  0  0
    8.8310   -3.3430    0.0000 Cl  0  0  0  0  0  0  0  0  0  0  0  0
    9.5140   -4.8520    0.0000 C   0  0  0  0  0  0  0  0  0  0  0  0
    0.9140   -5.6190    0.0000 O   0  0  0  0  0  0  0  0  0  0  0  0
    0.1990   -5.2060    0.0000 C   0  0  0  0  0  0  0  0  0  0  0  0
    9.9310   -5.5620    0.0000 N   0  0  0  0  0  0  0  0  0  0  0  0
   10.7370   -5.3860    0.0000 O   0  0  0  0  0  0  0  0  0  0  0  0
   10.8190   -4.5650    0.0000 C   0  0  0  0  0  0  0  0  0  0  0  0
   10.0640   -4.2340    0.0000 N   0  0  0  0  0  0  0  0  0  0  0  0
   11.5310   -4.1490    0.0000 O   0  0  0  0  0  0  0  0  0  0  0  0
  1  2  1  1  0  0  0
  1  3  1  0  0  0  0
  1  7  1  0  0  0  0
  8  9  1  0  0  0  0
  9 10  2  0  0  0  0
 10 11  1  0  0  0  0
 11  2  2  0  0  0  0
  3  4  1  0  0  0  0
 10 12  1  0  0  0  0
  4  5  1  0  0  0  0
  9 13  1  0  0  0  0
  5  6  1  0  0  0  0
  6  7  1  0  0  0  0
  2  8  1  0  0  0  0
 13 14  1  0  0  0  0
 14 15  1  0  0  0  0
 15 16  2  0  0  0  0
 16 17  1  0  0  0  0
 17 18  2  0  0  0  0
 18 19  1  0  0  0  0
 19 20  2  0  0  0  0
 20 15  1  0  0  0  0
 19 21  1  0  0  0  0
 18 22  1  0  0  0  0
  5 23  1  6  0  0  0
 23 24  1  0  0  0  0
 22 25  2  0  0  0  0
 25 26  1  0  0  0  0
 26 27  1  0  0  0  0
 27 28  1  0  0  0  0
 28 22  1  0  0  0  0
 27 29  2  0  0  0  0
V    1 M1
V    5 M1
M  END
>  <ID_NEW>
CPDPP3375

>  <pEC50>
5.902428839252428

$$$$

  SciTegic12180813042D

 26 28  0  0  0  0            999 V2000
   -2.7996    2.6414    0.0000 C   0  0
   -3.1227    1.6977    0.0000 C   0  0
   -2.5548    0.8754    0.0000 C   0  0
   -1.5545    0.8526    0.0000 C   0  0
   -4.9256   -0.1585    0.0000 C   0  0
   -4.8438   -1.1551    0.0000 C   0  0
   -4.1033    0.4107    0.0000 C   0  0
   -4.0805    1.4104    0.0000 N   0  0
   -3.1596    0.0800    0.0000 O   0  0
   -1.8137    2.8283    0.0000 O   0  0
   -1.8167    3.8292    0.0000 C   0  0
   -1.0763   -0.0246    0.0000 O   0  0
   -0.0727   -0.0485    0.0000 C   0  0
    0.4031   -0.9307    0.0000 C   0  0
    1.4074   -0.9558    0.0000 C   0  0
    1.9315   -0.0989    0.0000 C   0  0
    1.4460    0.7852    0.0000 C   0  0
    0.4380    0.8061    0.0000 C   0  0
    2.9357   -0.1223    0.0000 C   0  0
    1.9687    1.6479    0.0000 Cl  0  0
   -5.8297    0.2691    0.0000 C   0  0
    3.5068   -0.9447    0.0000 N   0  0
    4.4691   -0.6567    0.0000 O   0  0
    4.4925    0.3476    0.0000 C   0  0
    3.5446    0.6800    0.0000 N   0  0
    5.3187    0.9190    0.0000 O   0  0
  2  3  2  0
  1 10  1  0
 10 11  1  0
  4 12  1  0
 12 13  1  0
 13 14  2  0
 14 15  1  0
 15 16  2  0
 16 17  1  0
 17 18  2  0
 18 13  1  0
 16 19  1  0
 17 20  1  0
  5 21  1  0
  1  2  1  0
  3  4  1  0
  7  8  2  0
  7  9  1  0
  5  6  1  0
  5  7  1  0
  2  8  1  0
  3  9  1  0
 19 22  2  0
 22 23  1  0
 23 24  1  0
 24 25  1  0
 25 19  1  0
 24 26  2  0
M  END
>  <ID_NEW>
CPDPP3376

>  <pEC50>
5.892944703849299

$$$$

  -MTS-   10172316532D 0   0.00000     0.00000     0

 44 48  0  0  1  0  0  0  0  0999 V2000
   -1.4650    1.4820    0.0000 C   0  0  0  0  0  0  0  0  0  0  0  0
   -3.7120    2.3150    0.0000 C   0  0  0  0  0  0  0  0  0  0  0  0
   -4.1090    2.2560    0.0000 C   0  0  0  0  0  0  0  0  0  0  0  0
   -3.4940    2.6630    0.0000 S   0  0  0  0  0  0  0  0  0  0  0  0
   -3.4460    2.0090    0.0000 N   0  0  0  0  0  0  0  0  0  0  0  0
   -4.2620    1.8890    0.0000 C   0  0  0  0  0  0  0  0  0  0  0  0
   -4.3510    2.5840    0.0000 C   0  0  0  0  0  0  0  0  0  0  0  0
   -3.1020    2.5660    0.0000 C   0  0  0  0  0  0  0  0  0  0  0  0
   -3.0690    2.1520    0.0000 C   0  0  0  0  0  0  0  0  0  0  0  0
   -4.6600    1.8310    0.0000 C   0  0  0  0  0  0  0  0  0  0  0  0
   -4.7660    2.5310    0.0000 C   0  0  0  0  0  0  0  0  0  0  0  0
   -2.7830    2.8400    0.0000 C   0  0  2  0  0  0  0  0  0  0  0  0
   -2.7130    1.9240    0.0000 C   0  0  0  0  0  0  0  0  0  0  0  0
   -4.9060    2.1580    0.0000 C   0  0  0  0  0  0  0  0  0  0  0  0
   -2.4070    2.6970    0.0000 O   0  0  0  0  0  0  0  0  0  0  0  0
   -5.3050    2.1020    0.0000 C   0  0  0  0  0  0  0  0  0  0  0  0
   -5.7080    2.0740    0.0000 F   0  0  0  0  0  0  0  0  0  0  0  0
   -5.2710    1.7100    0.0000 F   0  0  0  0  0  0  0  0  0  0  0  0
   -5.3380    2.5090    0.0000 F   0  0  0  0  0  0  0  0  0  0  0  0
   -2.0000    2.7040    0.0000 C   0  0  0  0  0  0  0  0  0  0  0  0
   -1.7980    2.3560    0.0000 C   0  0  0  0  0  0  0  0  0  0  0  0
   -1.4030    2.3550    0.0000 C   0  0  0  0  0  0  0  0  0  0  0  0
   -1.2020    2.6970    0.0000 C   0  0  0  0  0  0  0  0  0  0  0  0
   -1.4030    3.0590    0.0000 C   0  0  0  0  0  0  0  0  0  0  0  0
   -1.8000    3.0580    0.0000 C   0  0  0  0  0  0  0  0  0  0  0  0
   -1.2020    2.0120    0.0000 O   0  0  0  0  0  0  0  0  0  0  0  0
   -0.7890    2.6970    0.0000 C   0  0  0  0  0  0  0  0  0  0  0  0
   -0.5950    2.3580    0.0000 N   0  0  0  0  0  0  0  0  0  0  0  0
   -0.5940    3.0610    0.0000 N   0  0  0  0  0  0  0  0  0  0  0  0
   -0.1190    2.9510    0.0000 O   0  0  0  0  0  0  0  0  0  0  0  0
   -0.1170    2.4760    0.0000 C   0  0  0  0  0  0  0  0  0  0  0  0
    0.1480    2.2370    0.0000 O   0  0  0  0  0  0  0  0  0  0  0  0
   -2.7400    1.5100    0.0000 N   0  0  0  0  0  0  0  0  0  0  0  0
   -3.1080    1.3220    0.0000 C   0  0  0  0  0  0  0  0  0  0  0  0
   -3.1270    0.9060    0.0000 C   0  0  0  0  0  0  0  0  0  0  0  0
   -2.7800    0.6850    0.0000 C   0  0  0  0  0  0  0  0  0  0  0  0
   -2.4130    0.8750    0.0000 C   0  0  0  0  0  0  0  0  0  0  0  0
   -2.3970    1.2820    0.0000 C   0  0  0  0  0  0  0  0  0  0  0  0
   -2.8090    0.2630    0.0000 C   0  0  0  0  0  0  0  0  0  0  0  0
   -3.1800    0.0860    0.0000 F   0  0  0  0  0  0  0  0  0  0  0  0
   -2.4620    0.0470    0.0000 F   0  0  0  0  0  0  0  0  0  0  0  0
   -3.2010    0.3970    0.0000 F   0  0  0  0  0  0  0  0  0  0  0  0
   -2.8560    3.2510    0.0000 C   0  0  0  0  0  0  0  0  0  0  0  0
   -2.5350    3.5190    0.0000 C   0  0  0  0  0  0  0  0  0  0  0  0
 15 20  1  0  0  0  0
 20 21  2  0  0  0  0
 21 22  1  0  0  0  0
 22 23  2  0  0  0  0
 23 24  1  0  0  0  0
 24 25  2  0  0  0  0
 25 20  1  0  0  0  0
 22 26  1  0  0  0  0
 26  1  1  0  0  0  0
 23 27  1  0  0  0  0
 27 28  1  0  0  0  0
 27 29  2  0  0  0  0
 29 30  1  0  0  0  0
 28 31  1  0  0  0  0
 31 32  2  0  0  0  0
 30 31  1  0  0  0  0
 13 33  1  0  0  0  0
 33 34  1  0  0  0  0
  2  3  1  0  0  0  0
  2  4  1  0  0  0  0
 33 38  1  0  0  0  0
 34 35  1  0  0  0  0
 35 36  1  0  0  0  0
 36 37  1  0  0  0  0
 37 38  1  0  0  0  0
  2  5  2  0  0  0  0
 36 39  1  0  0  0  0
  3  6  1  0  0  0  0
 39 40  1  0  0  0  0
  3  7  2  0  0  0  0
 39 41  1  0  0  0  0
  4  8  1  0  0  0  0
 39 42  1  0  0  0  0
  5  9  1  0  0  0  0
 12 43  1  1  0  0  0
  6 10  2  0  0  0  0
 43 44  1  0  0  0  0
  7 11  1  0  0  0  0
  8 12  1  0  0  0  0
  9 13  1  0  0  0  0
 10 14  1  0  0  0  0
 12 15  1  0  0  0  0
 14 16  1  0  0  0  0
 16 17  1  0  0  0  0
 16 18  1  0  0  0  0
 16 19  1  0  0  0  0
  8  9  2  0  0  0  0
 11 14  2  0  0  0  0
M  END
>  <ID_NEW>
CPDPP3377

>  <pEC50>
5.8897145194709015

$$$$

  SciTegic12180812542D

 38 42  0  0  0  0            999 V2000
    1.9444   -6.1291    0.0000 C   0  0
    1.9433   -6.9565    0.0000 C   0  0
    2.6581   -7.3694    0.0000 C   0  0
    3.3745   -6.9560    0.0000 C   0  0
    3.3717   -6.1255    0.0000 C   0  0
    2.6563   -5.7164    0.0000 C   0  0
    4.0846   -5.7103    0.0000 C   0  0
    4.8373   -6.0447    0.0000 N   0  0
    5.3870   -5.4295    0.0000 C   0  0
    6.2078   -5.5126    0.0000 C   0  0
    4.9718   -4.7165    0.0000 C   0  0
    4.1655   -4.8912    0.0000 O   0  0
    5.3044   -3.9616    0.0000 C   0  0
    1.2250   -7.3625    0.0000 C   0  0
    0.5127   -6.9441    0.0000 C   0  0
   -0.2051   -7.3494    0.0000 C   0  0
   -0.2130   -8.1753    0.0000 C   0  0
    0.5027   -8.5942    0.0000 C   0  0
    1.2175   -8.1865    0.0000 C   0  0
   10.3333   -5.2458    0.0000 N   0  0
    6.5666   -6.7167    0.0000 O   0  0
    7.2791   -6.3000    0.0000 C   0  0
    8.7161   -6.2957    0.0000 C   0  0
    8.7120   -5.4653    0.0000 C   0  0
    7.9857   -5.0567    0.0000 C   0  0
    7.2725   -5.4751    0.0000 C   0  0
    9.5083   -5.2458    0.0000 S   0  0
    9.5041   -4.4208    0.0000 O   0  0
    9.5041   -6.0708    0.0000 O   0  0
   10.9667   -5.7836    0.0000 C   0  0
   10.9048   -6.6104    0.0000 N   0  0
   11.6723   -6.9235    0.0000 N   0  0
   12.2101   -6.2942    0.0000 C   0  0
   11.7723   -5.5882    0.0000 S   0  0
   13.0276   -6.4323    0.0000 C   0  0
   13.5622   -5.7963    0.0000 C   0  0
   13.4971   -7.1091    0.0000 C   0  0
    8.0000   -6.7125    0.0000 C   0  0
  7  8  2  0
  8  9  1  0
 11 12  1  0
 11 13  1  0
 12  7  1  0
 11  9  2  0
  2 14  1  0
 14 15  2  0
  9 10  1  0
 15 16  1  0
  1  2  2  0
 16 17  2  0
  2  3  1  0
 17 18  1  0
  3  4  2  0
 18 19  2  0
 19 14  1  0
  4  5  1  0
  5  6  2  0
  6  1  1  0
  5  7  1  0
 31 32  1  0
 32 33  2  0
 22 38  2  0
 33 34  1  0
 34 30  1  0
 33 35  1  0
 24 25  1  0
 35 36  1  0
 35 37  1  0
 25 26  2  0
 26 22  1  0
 24 27  1  0
 27 28  2  0
 21 22  1  0
 27 29  2  0
 27 20  1  0
 20 30  1  0
 30 31  2  0
 38 23  1  0
 23 24  2  0
 10 21  1  0
M  END
>  <ID_NEW>
CPDPP3378

>  <pEC50>
5.863563748094973

$$$$

  SciTegic12180812332D

 40 44  0  0  0  0            999 V2000
   -4.4014    2.5625    0.0000 C   0  0
   -4.4026    1.7352    0.0000 C   0  0
   -3.6878    1.3223    0.0000 C   0  0
   -2.9713    1.7356    0.0000 C   0  0
   -2.9742    2.5662    0.0000 C   0  0
   -3.6896    2.9753    0.0000 C   0  0
   -5.1160    2.9749    0.0000 C   0  0
   -5.1162    3.7999    0.0000 F   0  0
   -5.8304    2.5622    0.0000 F   0  0
   -4.5328    3.5584    0.0000 F   0  0
   -2.2562    1.3243    0.0000 C   0  0
   -2.1681    0.5064    0.0000 N   0  0
   -1.3609    0.3361    0.0000 C   0  0
   -0.9495    1.0513    0.0000 C   0  0
   -1.5026    1.6634    0.0000 S   0  0
   -1.0242   -0.4170    0.0000 C   0  0
   -0.1292    1.1389    0.0000 C   0  0
    0.3569    0.4722    0.0000 N   0  0
    0.2052    1.8931    0.0000 O   0  0
    1.1772    0.5598    0.0000 C   0  0
    1.7308   -0.0486    0.0000 C   0  0
    1.5890    1.2787    0.0000 C   0  0
    2.3963    1.1086    0.0000 C   0  0
    2.4807    0.2890    0.0000 C   0  0
    3.2314   -0.0461    0.0000 C   0  0
    3.8983    0.4374    0.0000 C   0  0
    3.8096    1.2598    0.0000 C   0  0
    3.0587    1.5911    0.0000 C   0  0
    4.6522    0.1025    0.0000 S   0  0
    5.3193    0.5879    0.0000 N   0  0
    4.0625   -0.4792    0.0000 O   0  0
    5.3625   -0.3083    0.0000 O   0  0
    6.0732    0.2530    0.0000 C   0  0
    6.2461   -0.5509    0.0000 N   0  0
    7.0667   -0.6365    0.0000 N   0  0
    7.4017    0.1175    0.0000 C   0  0
    6.7881    0.6689    0.0000 S   0  0
    8.2085    0.2897    0.0000 C   0  0
    8.7611   -0.3229    0.0000 C   0  0
    8.4627    1.0746    0.0000 C   0  0
  1  2  2  0
  2  3  1  0
  3  4  2  0
  4  5  1  0
  5  6  2  0
  6  1  1  0
  1  7  1  0
  7  8  1  0
  7  9  1  0
  7 10  1  0
  4 11  1  0
 11 12  2  0
 12 13  1  0
 13 14  2  0
 14 15  1  0
 15 11  1  0
 13 16  1  0
 14 17  1  0
 17 18  1  0
 17 19  2  0
 18 20  1  0
 20 21  1  0
 21 24  1  0
 23 22  1  0
 22 20  1  0
 23 24  2  0
 24 25  1  0
 25 26  2  0
 26 27  1  0
 27 28  2  0
 28 23  1  0
 26 29  1  0
 29 30  1  0
 29 31  2  0
 29 32  2  0
 30 33  1  0
 33 34  2  0
 34 35  1  0
 35 36  2  0
 36 37  1  0
 37 33  1  0
 36 38  1  0
 38 39  1  0
 38 40  1  0
M  END
>  <ID_NEW>
CPDPP3379

>  <pEC50>
5.861064257329103

$$$$

  -MTS-   10172316532D 0   0.00000     0.00000     0

 39 43  0  0  1  0  0  0  0  0999 V2000
    1.3630   -0.0300    0.0000 C   0  0  0  0  0  0  0  0  0  0  0  0
    1.7450   -0.7230    0.0000 C   0  0  0  0  0  0  0  0  0  0  0  0
    2.5500   -0.7350    0.0000 C   0  0  0  0  0  0  0  0  0  0  0  0
    2.5550    0.6480    0.0000 C   0  0  0  0  0  0  0  0  0  0  0  0
    1.7640    0.6480    0.0000 C   0  0  0  0  0  0  0  0  0  0  0  0
    2.9550   -0.0460    0.0000 C   0  0  0  0  0  0  0  0  0  0  0  0
    2.9570    1.3330    0.0000 Cl  0  0  0  0  0  0  0  0  0  0  0  0
    3.7300   -0.0560    0.0000 C   0  0  0  0  0  0  0  0  0  0  0  0
    4.2020   -0.6880    0.0000 N   0  0  0  0  0  0  0  0  0  0  0  0
    4.9520   -0.4500    0.0000 O   0  0  0  0  0  0  0  0  0  0  0  0
    4.9580    0.3380    0.0000 C   0  0  0  0  0  0  0  0  0  0  0  0
    4.2030    0.5830    0.0000 N   0  0  0  0  0  0  0  0  0  0  0  0
    5.5930    0.8020    0.0000 O   0  0  0  0  0  0  0  0  0  0  0  0
    0.7600   -0.1320    0.0000 O   0  0  0  0  0  0  0  0  0  0  0  0
   -3.4840    0.0360    0.0000 C   0  0  0  0  0  0  0  0  0  0  0  0
   -3.8660   -0.6070    0.0000 C   0  0  0  0  0  0  0  0  0  0  0  0
   -3.5130   -1.2480    0.0000 C   0  0  0  0  0  0  0  0  0  0  0  0
   -2.7650   -1.2590    0.0000 C   0  0  0  0  0  0  0  0  0  0  0  0
   -2.3930   -0.6150    0.0000 C   0  0  0  0  0  0  0  0  0  0  0  0
   -2.7530    0.0270    0.0000 C   0  0  0  0  0  0  0  0  0  0  0  0
   -1.6510   -0.6220    0.0000 C   0  0  0  0  0  0  0  0  0  0  0  0
   -1.2250   -1.2210    0.0000 N   0  0  0  0  0  0  0  0  0  0  0  0
   -0.5210   -0.9940    0.0000 C   0  0  0  0  0  0  0  0  0  0  0  0
   -0.5230   -0.2640    0.0000 C   0  0  0  0  0  0  0  0  0  0  0  0
   -1.2190   -0.0250    0.0000 S   0  0  0  0  0  0  0  0  0  0  0  0
    0.0630   -1.4390    0.0000 C   0  0  0  0  0  0  0  0  0  0  0  0
    0.0830    0.1700    0.0000 C   0  0  1  0  0  0  0  0  0  0  0  0
   -4.6080   -0.5960    0.0000 C   0  0  0  0  0  0  0  0  0  0  0  0
   -4.9840   -1.2210    0.0000 F   0  0  0  0  0  0  0  0  0  0  0  0
   -4.9640    0.0530    0.0000 F   0  0  0  0  0  0  0  0  0  0  0  0
   -4.0910   -1.1250    0.0000 F   0  0  0  0  0  0  0  0  0  0  0  0
    0.0540    2.8510    0.0000 C   0  0  0  0  0  0  0  0  0  0  0  0
   -0.2080    2.1630    0.0000 C   0  0  0  0  0  0  0  0  0  0  0  0
    0.2660    1.5990    0.0000 C   0  0  0  0  0  0  0  0  0  0  0  0
    0.9860    1.7230    0.0000 C   0  0  0  0  0  0  0  0  0  0  0  0
    1.2490    2.4200    0.0000 C   0  0  0  0  0  0  0  0  0  0  0  0
    0.7770    2.9890    0.0000 C   0  0  0  0  0  0  0  0  0  0  0  0
    0.0020    0.9000    0.0000 C   0  0  0  0  0  0  0  0  0  0  0  0
    1.0310    3.6720    0.0000 F   0  0  0  0  0  0  0  0  0  0  0  0
  1  2  2  0  0  0  0
  4  5  2  0  0  0  0
  5  1  1  0  0  0  0
  2  3  1  0  0  0  0
  3  6  2  0  0  0  0
  4  6  1  0  0  0  0
  4  7  1  0  0  0  0
  6  8  1  0  0  0  0
 14  1  1  0  0  0  0
  8  9  2  0  0  0  0
  9 10  1  0  0  0  0
 10 11  1  0  0  0  0
 11 12  1  0  0  0  0
 12  8  1  0  0  0  0
 11 13  2  0  0  0  0
 17 18  2  0  0  0  0
 19 21  1  0  0  0  0
 22 23  1  0  0  0  0
 18 19  1  0  0  0  0
 16 17  1  0  0  0  0
 19 20  2  0  0  0  0
 21 22  2  0  0  0  0
 23 24  2  0  0  0  0
 24 25  1  0  0  0  0
 25 21  1  0  0  0  0
 20 15  1  0  0  0  0
 24 27  1  0  0  0  0
 15 16  2  0  0  0  0
 23 26  1  0  0  0  0
 16 28  1  0  0  0  0
 28 29  1  0  0  0  0
 28 30  1  0  0  0  0
 28 31  1  0  0  0  0
 27 14  1  0  0  0  0
 27 38  1  1  0  0  0
 32 33  2  0  0  0  0
 33 34  1  0  0  0  0
 34 35  2  0  0  0  0
 35 36  1  0  0  0  0
 36 37  2  0  0  0  0
 37 32  1  0  0  0  0
 34 38  1  0  0  0  0
 37 39  1  0  0  0  0
M  END
>  <ID_NEW>
CPDPP3380

>  <pEC50>
5.850922840201184

$$$$

  SciTegic12180813082D

 44 48  0  0  0  0            999 V2000
   -4.0038    3.1527    0.0000 C   0  0
   -4.3672    3.0980    0.0000 C   0  0
   -3.8028    3.4712    0.0000 S   0  0
   -3.7582    2.8674    0.0000 N   0  0
   -4.5076    2.7602    0.0000 C   0  0
   -4.5889    3.3970    0.0000 C   0  0
   -3.4482    3.3827    0.0000 C   0  0
   -3.4152    3.0016    0.0000 C   0  0
   -4.8725    2.7064    0.0000 C   0  0
   -4.9702    3.3478    0.0000 C   0  0
   -3.1538    3.6320    0.0000 C   0  0
   -3.0884    2.7909    0.0000 C   0  0
   -5.1018    3.0078    0.0000 C   0  0
   -2.8116    3.5013    0.0000 O   0  0
   -5.4631    2.9564    0.0000 C   0  0
   -5.8333    2.9323    0.0000 F   0  0
   -5.4335    2.5932    0.0000 F   0  0
   -5.4961    3.3296    0.0000 F   0  0
   -2.4375    3.5042    0.0000 C   0  0
   -2.2478    3.1856    0.0000 C   0  0
   -1.8868    3.1841    0.0000 C   0  0
   -1.7017    3.5017    0.0000 C   0  0
   -1.8860    3.8302    0.0000 C   0  0
   -2.2502    3.8292    0.0000 C   0  0
   -1.7019    2.8701    0.0000 O   0  0
   -1.3270    3.5012    0.0000 C   0  0
   -1.1448    3.1868    0.0000 N   0  0
   -1.1441    3.8315    0.0000 N   0  0
   -0.7111    3.7343    0.0000 O   0  0
   -0.7086    3.2970    0.0000 C   0  0
   -0.4681    3.0784    0.0000 O   0  0
   -3.1113    2.4144    0.0000 N   0  0
   -3.4535    2.2433    0.0000 C   0  0
   -3.4688    1.8601    0.0000 C   0  0
   -3.1513    1.6561    0.0000 C   0  0
   -2.8134    1.8296    0.0000 C   0  0
   -2.7972    2.2030    0.0000 C   0  0
   -3.1797    1.2711    0.0000 C   0  0
   -3.5176    1.1106    0.0000 F   0  0
   -2.8619    1.0717    0.0000 F   0  0
   -3.5346    1.3931    0.0000 F   0  0
   -1.9438    2.3858    0.0000 C   0  0
   -2.4841    2.3532    0.0000 C   0  0
   -1.6453    1.9342    0.0000 C   0  0
  1  3  1  0
  1  4  2  0
  2  5  1  0
 32 37  1  0
 33 34  1  0
 34 35  1  0
 35 36  1  0
 36 37  1  0
  2  6  2  0
 35 38  1  0
  3  7  1  0
 38 39  1  0
  4  8  1  0
 38 40  1  0
  5  9  2  0
 38 41  1  0
  6 10  1  0
  7 11  1  0
 42 43  1  0
  8 12  1  0
 42 44  1  0
  9 13  1  0
 11 14  1  0
 13 15  1  0
 15 16  1  0
 15 17  1  0
 15 18  1  0
  7  8  2  0
 10 13  2  0
 14 19  1  0
 19 20  2  0
 20 21  1  0
 21 22  2  0
 22 23  1  0
 23 24  2  0
 24 19  1  0
 21 25  1  0
 25 42  1  0
 22 26  1  0
 26 27  1  0
 26 28  2  0
 28 29  1  0
 27 30  1  0
 30 31  2  0
 29 30  1  0
 12 32  1  0
 32 33  1  0
  1  2  1  0
M  END
>  <ID_NEW>
CPDPP3381

>  <pEC50>
5.8357378719216495

$$$$

  SciTegic12180813012D

 31 33  0  0  0  0            999 V2000
   -1.5471    2.6559    0.0000 C   0  0
   -0.8518    3.0999    0.0000 S   0  0
   -0.4064    2.4095    0.0000 O   0  0
   -1.2972    3.7981    0.0000 O   0  0
   -0.1589    3.5484    0.0000 N   0  0
   -4.3955    1.8112    0.0000 C   0  0
   -3.6780    1.4039    0.0000 C   0  0
   -2.9666    1.8216    0.0000 C   0  0
   -2.2525    1.4130    0.0000 C   0  0
   -1.5415    1.8301    0.0000 C   0  0
   -2.2696    3.0630    0.0000 C   0  0
   -2.9776    2.6436    0.0000 C   0  0
    0.5756    3.1728    0.0000 C   0  0
    0.7013    2.3580    0.0000 S   0  0
    1.5159    2.2278    0.0000 C   0  0
    1.8916    2.9623    0.0000 N   0  0
    1.3090    3.5465    0.0000 N   0  0
    1.8894    1.4921    0.0000 C   0  0
    1.4390    0.8009    0.0000 C   0  0
    2.7132    1.4477    0.0000 C   0  0
   -5.1009    0.5685    0.0000 C   0  0
   -5.8104    0.1517    0.0000 O   0  0
   -4.3799    0.1589    0.0000 C   0  0
   -5.1070    1.3935    0.0000 N   0  0
   -4.3762   -0.6678    0.0000 C   0  0
   -3.6560   -1.0773    0.0000 C   0  0
   -2.9398   -0.6576    0.0000 C   0  0
   -2.9483    0.1758    0.0000 C   0  0
   -3.6690    0.5816    0.0000 C   0  0
   -5.0884   -1.0842    0.0000 Cl  0  0
   -2.2219   -1.0641    0.0000 Cl  0  0
  9 10  1  0
 10  1  2  0
  1 11  1  0
 11 12  2  0
 12  8  1  0
  5 13  1  0
 13 14  1  0
 14 15  1  0
 15 16  2  0
 16 17  1  0
 17 13  2  0
 15 18  1  0
 18 19  1  0
 18 20  1  0
  1  2  1  0
  2  3  2  0
  2  4  2  0
  2  5  1  0
 23 21  1  0
 21 22  2  0
 21 24  1  0
 24  6  1  0
  6  7  1  0
  7  8  1  0
  8  9  2  0
 23 25  2  0
 25 26  1  0
 26 27  2  0
 27 28  1  0
 28 29  2  0
 29 23  1  0
 25 30  1  0
 27 31  1  0
M  END
>  <ID_NEW>
CPDPP3382

>  <pEC50>
5.833215382470389

$$$$

  SciTegic12180813062D

 29 32  0  0  0  0            999 V2000
   -3.9317    4.9334    0.0000 C   0  0
   -4.7816    6.1693    0.0000 C   0  0
   -2.4322    4.8946    0.0000 C   0  0
   -4.8445    3.7431    0.0000 S   0  0
   -6.2197    5.7429    0.0000 N   0  0
   -4.2813    7.5834    0.0000 C   0  0
   -1.7160    3.5766    0.0000 O   0  0
   -6.2586    4.2434    0.0000 C   0  0
   -0.2165    3.5377    0.0000 C   0  0
    0.4996    2.2197    0.0000 C   0  0
    1.9991    2.1809    0.0000 C   0  0
    2.7825    3.4601    0.0000 C   0  0
    2.0663    4.7781    0.0000 C   0  0
    0.5668    4.8169    0.0000 C   0  0
    4.2820    3.4212    0.0000 C   0  0
    2.8497    6.0573    0.0000 Cl  0  0
    5.1319    2.1853    0.0000 N   0  0
    6.5700    2.6117    0.0000 C   0  0
    6.6089    4.1112    0.0000 O   0  0
    5.1948    4.6115    0.0000 N   0  0
    7.7603    1.6989    0.0000 O   0  0
   -7.4945    3.3934    0.0000 C   0  0
   -8.8486    4.0388    0.0000 C   0  0
   -7.3764    1.8981    0.0000 C   0  0
  -10.0845    3.1888    0.0000 C   0  0
   -8.6123    1.0481    0.0000 C   0  0
   -9.9664    1.6935    0.0000 C   0  0
  -11.2023    0.8435    0.0000 C   0  0
  -12.4383   -0.0064    0.0000 N   0  0
  7  9  1  0
  9 10  2  0
 10 11  1  0
 11 12  2  0
 12 13  1  0
 13 14  2  0
 14  9  1  0
 12 15  1  0
 13 16  1  0
 15 17  2  0
 17 18  1  0
 18 19  1  0
 19 20  1  0
 20 15  1  0
 18 21  2  0
  1  2  2  0
  1  3  1  0
  1  4  1  0
  2  5  1  0
  2  6  1  0
  3  7  1  0
  4  8  1  0
  5  8  2  0
 22 23  2  0
 22 24  1  0
 23 25  1  0
 24 26  2  0
 25 27  2  0
 27 28  1  0
 28 29  3  0
 26 27  1  0
  8 22  1  0
M  END
>  <ID_NEW>
CPDPP3383

>  <pEC50>
5.827494295283172

$$$$

  SciTegic12180813062D

 39 42  0  0  0  0            999 V2000
    1.7141    1.4546    0.0000 N   0  0
    2.1254    0.7402    0.0000 C   0  0
    2.9250    0.5679    0.0000 S   0  0
    1.7091    0.0226    0.0000 N   0  0
    2.2611   -0.5924    0.0000 N   0  0
    3.0122   -0.2549    0.0000 C   0  0
    3.7210   -0.6731    0.0000 C   0  0
    4.4369   -0.2600    0.0000 C   0  0
    3.7245   -1.5007    0.0000 C   0  0
    2.1281    2.1658    0.0000 S   0  0
    2.8383    1.7571    0.0000 O   0  0
    2.5402    2.8803    0.0000 O   0  0
    1.4155    2.5768    0.0000 C   0  0
    1.4204    3.4034    0.0000 C   0  0
    0.7067    3.8219    0.0000 C   0  0
   -1.4529    0.9283    0.0000 N   0  0
   -0.7347    1.3418    0.0000 C   0  0
    0.7009    2.1715    0.0000 C   0  0
   -1.4476    2.5934    0.0000 C   0  0
   -0.7321    2.1778    0.0000 C   0  0
   -0.0135    2.5885    0.0000 C   0  0
   -0.0123    3.4111    0.0000 C   0  0
   -0.7258    3.8303    0.0000 C   0  0
   -1.4426    3.4231    0.0000 C   0  0
   -2.1669    1.3417    0.0000 C   0  0
   -2.8818    0.9300    0.0000 C   0  0
   -2.1659    2.1667    0.0000 O   0  0
   -3.5917    1.3460    0.0000 C   0  0
   -4.3062    0.9350    0.0000 C   0  0
   -4.3077    0.1091    0.0000 C   0  0
   -3.5887   -0.3041    0.0000 C   0  0
   -2.8771    0.1093    0.0000 C   0  0
   -2.1609   -0.3002    0.0000 O   0  0
   -2.1575   -1.1252    0.0000 C   0  0
   -1.4413   -1.5347    0.0000 C   0  0
   -5.0221   -0.3035    0.0000 C   0  0
   -5.6738   -0.6836    0.0000 F   0  0
   -5.8297   -0.0018    0.0000 F   0  0
   -5.1612   -1.1593    0.0000 F   0  0
  7  8  1  0
  7  9  1  0
  1  2  1  0
  2  3  1  0
  3  6  1  0
 13 10  1  0
 10 11  2  0
 10  1  1  0
 10 12  2  0
 18 13  2  0
 13 14  1  0
 17 16  1  0
 14 15  2  0
 15 22  1  0
 20 17  1  0
 18 21  1  0
 19 20  1  0
 19 24  1  0
 20 21  1  0
 21 22  2  0
 22 23  1  0
 23 24  1  0
  5  4  1  0
  4  2  2  0
  5  6  2  0
  6  7  1  0
 16 25  1  0
 25 26  1  0
 25 27  2  0
 26 28  2  0
 28 29  1  0
 29 30  2  0
 30 31  1  0
 31 32  2  0
 32 26  1  0
 32 33  1  0
 33 34  1  0
 34 35  1  0
 30 36  1  0
 36 37  1  0
 36 38  1  0
 36 39  1  0
M  END
>  <ID_NEW>
CPDPP3384

>  <pEC50>
5.821165518064968

$$$$

  SciTegic12180812592D

 31 34  0  0  0  0            999 V2000
   10.4163   -2.0284    0.0000 C   0  0
   11.1548   -1.6462    0.0000 C   0  0
   11.1915   -0.8256    0.0000 C   0  0
   10.4979   -0.3826    0.0000 C   0  0
    9.7586   -0.7698    0.0000 C   0  0
    9.7254   -1.5891    0.0000 C   0  0
    8.9944   -1.9715    0.0000 C   0  0
    8.2977   -1.5297    0.0000 O   0  0
    7.7087   -0.9411    0.0000 C   0  0
    4.5887   -3.9351    0.0000 C   0  0
    5.0779   -4.6023    0.0000 C   0  0
    5.9001   -4.5212    0.0000 C   0  0
    6.2340   -3.7711    0.0000 C   0  0
    5.7517   -3.1000    0.0000 C   0  0
    4.9304   -3.1794    0.0000 C   0  0
    4.7373   -5.3558    0.0000 C   0  0
    6.0890   -2.3438    0.0000 C   0  0
    3.9953   -5.2689    0.0000 F   0  0
    6.9029   -2.1743    0.0000 S   0  0
    6.9894   -1.3511    0.0000 C   0  0
    6.2360   -1.0103    0.0000 C   0  0
    5.6810   -1.6234    0.0000 N   0  0
    6.0677   -0.2007    0.0000 C   0  0
    4.6208   -6.1137    0.0000 F   0  0
    5.5221   -5.5816    0.0000 F   0  0
   11.9237   -0.4454    0.0000 C   0  0
   12.6586   -0.8133    0.0000 N   0  0
   13.2375   -0.2255    0.0000 O   0  0
   12.8573    0.5067    0.0000 C   0  0
   12.0435    0.3713    0.0000 N   0  0
   13.2625    1.2250    0.0000 O   0  0
  6  7  1  0
  7  8  1  0
  8  9  1  0
  4  5  1  0
 16 25  1  0
 22 17  2  0
 12 13  2  0
 21 23  1  0
 14 17  1  0
 13 14  1  0
 16 18  1  0
 11 12  1  0
 17 19  1  0
 14 15  2  0
 15 10  1  0
 10 11  2  0
 11 16  1  0
 19 20  1  0
 20 21  2  0
 16 24  1  0
 21 22  1  0
 20  9  1  0
  3 26  1  0
 26 27  2  0
  2  3  1  0
  5  6  2  0
  6  1  1  0
  1  2  2  0
 27 28  1  0
 28 29  1  0
 29 30  1  0
 30 26  1  0
  3  4  2  0
 29 31  2  0
M  END
>  <ID_NEW>
CPDPP3385

>  <pEC50>
5.820272195268631

$$$$

  SciTegic12180812502D

 34 37  0  0  0  0            999 V2000
   -0.9389    2.7042    0.0000 C   0  0
   -0.9401    2.0769    0.0000 C   0  0
   -0.3961    1.7640    0.0000 C   0  0
    0.1454    2.0773    0.0000 C   0  0
    0.1425    2.7079    0.0000 C   0  0
   -0.3979    3.0170    0.0000 C   0  0
    0.6824    3.0227    0.0000 C   0  0
    0.8375    3.6292    0.0000 N   0  0
    1.4393    3.7979    0.0000 O   0  0
    1.1813    2.6461    0.0000 N   0  0
   -1.4813    1.7644    0.0000 S   0  0
   -1.4814    1.1394    0.0000 C   0  0
   -2.0227    0.8270    0.0000 C   0  0
   -2.8435    0.8663    0.0000 S   0  0
   -2.9677    0.2856    0.0000 C   0  0
   -2.4962    0.0110    0.0000 N   0  0
   -2.0200    0.2804    0.0000 C   0  0
   -1.5467    0.0060    0.0000 C   0  0
   -1.5477   -0.5412    0.0000 C   0  0
   -1.0743   -0.8157    0.0000 C   0  0
   -1.0754   -1.3628    0.0000 C   0  0
   -3.5720    0.1262    0.0000 C   0  0
   -4.0126    0.5675    0.0000 C   0  0
   -4.6164    0.4085    0.0000 C   0  0
   -4.7811   -0.1951    0.0000 C   0  0
   -4.3371   -0.6397    0.0000 C   0  0
   -3.7350   -0.4783    0.0000 C   0  0
   -5.3898   -0.3553    0.0000 C   0  0
   -5.8323    0.0878    0.0000 F   0  0
   -5.5515   -0.9586    0.0000 F   0  0
   -5.3914    0.2697    0.0000 F   0  0
   -1.9958    2.1625    0.0000 O   0  0
    1.7167    2.9667    0.0000 C   0  0
    2.2542    2.6542    0.0000 O   0  0
 25 28  1  0
  2 11  1  0
 28 29  1  0
  2  3  1  0
 28 30  1  0
 11 12  1  0
 28 31  1  0
 12 13  1  0
 13 14  1  0
  3  4  2  0
  4  5  1  0
 15 16  2  0
 16 17  1  0
 17 13  2  0
 14 15  1  0
  5  6  2  0
 11 32  2  0
 17 18  1  0
  6  1  1  0
 18 19  1  0
 19 20  1  0
  5  7  1  0
 20 21  1  0
 15 22  1  0
  7  8  2  0
 22 23  2  0
 23 24  1  0
  8  9  1  0
 24 25  2  0
  1  2  2  0
 25 26  1  0
  7 10  1  0
 26 27  2  0
 27 22  1  0
 10 33  1  0
 33 34  2  0
 33  9  1  0
M  END
>  <ID_NEW>
CPDPP3386

>  <pEC50>
5.805658054566819

$$$$

  SciTegic12180813072D

 35 38  0  0  0  0            999 V2000
   -3.6615    1.9661    0.0000 C   0  0
   -3.6586    2.5926    0.0000 N   0  0
   -4.2059    2.9063    0.0000 C   0  0
   -4.7501    2.5915    0.0000 C   0  0
   -4.7455    1.9695    0.0000 C   0  0
   -4.1936    1.6542    0.0000 C   0  0
   -5.2884    2.9025    0.0000 C   0  0
   -5.8329    3.2181    0.0000 F   0  0
   -4.9745    3.4435    0.0000 F   0  0
   -5.6042    2.3621    0.0000 F   0  0
   -4.1910    1.0223    0.0000 Cl  0  0
    0.1391    2.2671    0.0000 N   0  0
    0.1421    1.6444    0.0000 C   0  0
    0.6792    1.3304    0.0000 S   0  0
   -0.3242    1.2226    0.0000 N   0  0
   -0.0681    0.6618    0.0000 N   0  0
    0.5497    0.7201    0.0000 C   0  0
    0.9543    0.2436    0.0000 C   0  0
    1.5661    0.3650    0.0000 C   0  0
    0.7537   -0.3424    0.0000 C   0  0
   -0.4052    2.5825    0.0000 S   0  0
   -0.7200    2.0363    0.0000 O   0  0
   -0.0931    3.1261    0.0000 O   0  0
   -0.9512    2.8935    0.0000 C   0  0
   -0.9504    3.5201    0.0000 C   0  0
   -1.4933    3.8302    0.0000 C   0  0
   -3.1096    1.6467    0.0000 N   0  0
   -2.5680    1.9543    0.0000 C   0  0
   -1.4949    2.5798    0.0000 C   0  0
   -3.1101    2.8934    0.0000 C   0  0
   -2.5696    2.5820    0.0000 C   0  0
   -2.0302    2.8927    0.0000 C   0  0
   -2.0331    3.5194    0.0000 C   0  0
   -2.5675    3.8303    0.0000 C   0  0
   -3.1093    3.5189    0.0000 C   0  0
  1  2  2  0
  2  3  1  0
  3  4  2  0
  4  5  1  0
  5  6  2  0
 31 32  1  0
 32 33  2  0
 33 34  1  0
 34 35  1  0
 16 15  1  0
 15 13  2  0
 16 17  2  0
 17 18  1  0
 18 19  1  0
 18 20  1  0
 12 13  1  0
 13 14  1  0
 14 17  1  0
 24 21  1  0
 21 22  2  0
 21 12  1  0
 21 23  2  0
 29 24  2  0
 24 25  1  0
 28 27  1  0
 25 26  2  0
 26 33  1  0
 31 28  1  0
 29 32  1  0
 30 31  1  0
 30 35  1  0
  6  1  1  0
  7  8  1  0
  7  9  1  0
  7 10  1  0
  4  7  1  0
  6 11  1  0
 27  1  1  0
M  END
>  <ID_NEW>
CPDPP3387

>  <pEC50>
5.799816189480895

$$$$

  SciTegic12180813012D

 30 32  0  0  0  0            999 V2000
   -3.7174    1.2699    0.0000 C   0  0
   -4.5477    1.2787    0.0000 C   0  0
   -3.4551    2.0543    0.0000 S   0  0
   -4.7932    2.0685    0.0000 C   0  0
   -4.9648    0.5667    0.0000 C   0  0
   -4.1169    2.5485    0.0000 C   0  0
   -5.5774    2.3341    0.0000 Cl  0  0
   -4.1081    3.3746    0.0000 C   0  0
   -3.3875    3.7808    0.0000 N   0  0
   -4.8201    3.7959    0.0000 O   0  0
   -1.9585    3.7774    0.0000 C   0  0
   -1.2451    3.3632    0.0000 C   0  0
   -1.2506    2.5407    0.0000 C   0  0
   -0.5380    2.1265    0.0000 C   0  0
    0.1785    2.5373    0.0000 C   0  0
    0.1779    3.3666    0.0000 C   0  0
   -0.5353    3.7770    0.0000 C   0  0
    0.8957    2.1248    0.0000 S   0  0
    0.8947    1.2998    0.0000 N   0  0
    1.8106    2.1824    0.0000 O   0  0
    1.0611    2.9633    0.0000 O   0  0
    1.6087    0.8865    0.0000 C   0  0
    1.6951    0.0665    0.0000 S   0  0
    2.5019   -0.1059    0.0000 C   0  0
    2.9153    0.6082    0.0000 N   0  0
    2.3638    1.2218    0.0000 N   0  0
    2.8366   -0.8600    0.0000 C   0  0
    2.3510   -1.5269    0.0000 C   0  0
    3.6570   -0.9471    0.0000 C   0  0
   -2.6740    3.3666    0.0000 C   0  0
  1  2  2  0
  1  3  1  0
  2  4  1  0
  2  5  1  0
  3  6  1  0
  4  7  1  0
  6  8  1  0
  8  9  1  0
  8 10  2  0
  4  6  2  0
 14 15  2  0
 15 16  1  0
 16 17  2  0
 17 12  1  0
 18 19  1  0
 18 20  2  0
 15 18  1  0
 18 21  2  0
 19 22  1  0
 22 23  1  0
 23 24  1  0
 24 25  2  0
 25 26  1  0
 26 22  2  0
 24 27  1  0
 27 28  1  0
 27 29  1  0
 11 12  1  0
 12 13  2  0
 13 14  1  0
 11 30  1  0
 30  9  1  0
M  END
>  <ID_NEW>
CPDPP3388

>  <pEC50>
5.795221130686475

$$$$

  SciTegic12180812562D

 37 40  0  0  0  0            999 V2000
    0.3801   -6.7633    0.0000 N   0  0
    0.4467   -5.9137    0.0000 C   0  0
    1.1705   -7.0904    0.0000 N   0  0
    1.7230   -6.4407    0.0000 C   0  0
    1.2757   -5.7165    0.0000 S   0  0
    2.5684   -6.5073    0.0000 C   0  0
    3.0504   -5.8079    0.0000 C   0  0
    2.9361   -7.2731    0.0000 C   0  0
   -0.1989   -5.3612    0.0000 N   0  0
   -2.9356   -2.8417    0.0000 O   0  0
   -2.4517   -3.5440    0.0000 C   0  0
   -2.8172   -4.3151    0.0000 C   0  0
   -2.3334   -5.0131    0.0000 C   0  0
   -1.4839   -4.9483    0.0000 C   0  0
   -1.1184   -4.1773    0.0000 C   0  0
   -1.6022   -3.4751    0.0000 C   0  0
   -1.0042   -5.6463    0.0000 S   0  0
   -0.6477   -6.4233    0.0000 O   0  0
   -1.7424   -6.0652    0.0000 O   0  0
   -4.6158    2.2053    0.0000 C   0  0
   -5.4652    2.1409    0.0000 C   0  0
   -4.1319    1.5076    0.0000 C   0  0
   -4.2460    2.9760    0.0000 C   0  0
   -5.8307    1.3745    0.0000 C   0  0
   -4.4974    0.7370    0.0000 C   0  0
   -3.4084    2.8232    0.0000 F   0  0
   -5.0432    3.2768    0.0000 F   0  0
   -4.0213    3.7969    0.0000 F   0  0
   -5.3469    0.6683    0.0000 C   0  0
   -5.7166   -0.1019    0.0000 O   0  0
   -5.2326   -0.8040    0.0000 C   0  0
   -5.5982   -1.5751    0.0000 C   0  0
   -4.3832   -0.7394    0.0000 C   0  0
   -5.1142   -2.2773    0.0000 C   0  0
   -3.8992   -1.4416    0.0000 C   0  0
   -4.2649   -2.2085    0.0000 C   0  0
   -3.7809   -2.9106    0.0000 C   0  0
  1  2  2  0
  1  3  1  0
  3  4  2  0
  4  5  1  0
  5  2  1  0
  4  6  1  0
  6  7  1  0
  6  8  1  0
 17  9  1  0
 11 12  2  0
 12 13  1  0
 13 14  2  0
 14 15  1  0
 15 16  2  0
 16 11  1  0
 14 17  1  0
 17 18  2  0
 10 11  1  0
 17 19  2  0
 20 21  1  0
 20 22  2  0
 20 23  1  0
 21 24  2  0
 22 25  1  0
 23 26  1  0
 23 27  1  0
 23 28  1  0
 24 29  1  0
 29 30  1  0
 30 31  1  0
 31 32  2  0
 31 33  1  0
 32 34  1  0
 33 35  2  0
 34 36  2  0
 36 37  1  0
 25 29  2  0
 35 36  1  0
 10 37  1  0
  2  9  1  0
M  END
>  <ID_NEW>
CPDPP3389

>  <pEC50>
5.7865482281945955

$$$$

  SciTegic12180812592D

 32 34  0  0  0  0            999 V2000
  -10.9915  -12.9025    0.0000 C   0  0
  -10.9781  -14.4024    0.0000 C   0  0
   -9.6724  -15.1408    0.0000 C   0  0
   -8.3801  -14.3792    0.0000 C   0  0
   -8.3935  -12.8793    0.0000 C   0  0
   -9.6992  -12.1409    0.0000 C   0  0
  -12.2972  -12.1641    0.0000 Cl  0  0
   -7.1012  -12.1177    0.0000 C   0  0
   -5.7955  -12.8561    0.0000 N   0  0
   -7.1146  -10.6178    0.0000 O   0  0
   -4.5033  -12.0945    0.0000 C   0  0
   -3.1976  -12.8329    0.0000 C   0  0
   -1.9053  -12.0713    0.0000 C   0  0
   -0.5996  -12.8097    0.0000 C   0  0
    0.6927  -12.0481    0.0000 C   0  0
    0.6793  -10.5482    0.0000 C   0  0
   -0.6264   -9.8098    0.0000 C   0  0
   -1.9187  -10.5714    0.0000 C   0  0
    1.9716   -9.7866    0.0000 S   0  0
    3.3765   -9.2610    0.0000 O   0  0
    2.6176  -11.1403    0.0000 O   0  0
   -7.0744  -15.1176    0.0000 Cl  0  0
    3.9255   -3.6153    0.0000 C   0  0
    3.7041   -5.0989    0.0000 C   0  0
    5.4158   -3.4452    0.0000 F   0  0
    2.4283   -3.5240    0.0000 F   0  0
    3.8859   -2.1158    0.0000 F   0  0
    2.3737   -5.7918    0.0000 S   0  0
    4.7742   -6.1500    0.0000 N   0  0
    2.6216   -7.2711    0.0000 C   0  0
    4.1051   -7.4926    0.0000 N   0  0
    1.5704   -8.3412    0.0000 N   0  0
  9 11  1  0
  6  1  1  0
 11 12  1  0
  1  2  2  0
 12 13  1  0
  1  7  1  0
 13 14  2  0
  3  4  2  0
 14 15  1  0
 15 16  2  0
 16 17  1  0
  5  8  1  0
 17 18  2  0
 18 13  1  0
  4  5  1  0
 16 19  1  0
  8  9  1  0
 19 20  2  0
  2  3  1  0
 19 21  2  0
  8 10  2  0
  5  6  2  0
  4 22  1  0
 23 24  1  0
 23 25  1  0
 23 26  1  0
 23 27  1  0
 24 28  1  0
 24 29  2  0
 28 30  1  0
 29 31  1  0
 30 32  1  0
 30 31  2  0
 19 32  1  0
M  END
>  <ID_NEW>
CPDPP3390

>  <pEC50>
5.778107355743392

$$$$

  SciTegic12180813072D

 38 41  0  0  0  0            999 V2000
    5.2977   -2.2218    0.0000 C   0  0
    5.3009   -2.8617    0.0000 S   0  0
    5.9095   -2.0169    0.0000 N   0  0
    6.2846   -2.5263    0.0000 N   0  0
    5.9172   -3.0510    0.0000 C   0  0
    6.1316   -3.6590    0.0000 C   0  0
    5.7137   -4.1429    0.0000 C   0  0
    6.7556   -3.7744    0.0000 C   0  0
    4.7339   -1.9016    0.0000 N   0  0
    4.1804   -2.2301    0.0000 S   0  0
    3.6183   -2.5596    0.0000 C   0  0
    3.8508   -1.6731    0.0000 O   0  0
    4.5052   -2.7927    0.0000 O   0  0
    3.6190   -3.1994    0.0000 C   0  0
    3.0631   -2.2365    0.0000 C   0  0
    3.0644   -3.5227    0.0000 C   0  0
    2.5084   -3.1992    0.0000 C   0  0
    2.5104   -2.5598    0.0000 C   0  0
    1.8999   -2.3593    0.0000 C   0  0
    1.5263   -2.8762    0.0000 C   0  0
    1.9008   -3.3956    0.0000 C   0  0
    4.1824   -3.5221    0.0000 O   0  0
    0.8847   -2.8700    0.0000 N   0  0
    0.3330   -2.5396    0.0000 C   0  0
   -0.2335   -2.8614    0.0000 C   0  0
    0.3386   -1.8946    0.0000 O   0  0
   -0.8140   -2.6006    0.0000 S   0  0
   -1.2434   -3.0763    0.0000 C   0  0
   -0.9292   -3.6276    0.0000 C   0  0
   -0.3038   -3.4992    0.0000 C   0  0
    0.1672   -3.9342    0.0000 O   0  0
    0.0257   -4.5599    0.0000 C   0  0
   -1.8794   -3.0099    0.0000 C   0  0
   -2.5171   -2.9400    0.0000 F   0  0
   -1.8149   -2.3698    0.0000 F   0  0
   -1.9475   -3.6454    0.0000 F   0  0
    0.4969   -4.9954    0.0000 C   0  0
    4.1846   -4.1638    0.0000 C   0  0
 10  9  1  0
 14 11  2  0
 11 15  1  0
 15 18  2  0
 17 16  2  0
 16 14  1  0
 17 18  1  0
 18 19  1  0
 19 20  1  0
 20 21  1  0
 21 17  1  0
 20 23  1  0
 14 22  1  0
 10 13  2  0
 11 10  1  0
 10 12  2  0
  2  5  1  0
  4  3  1  0
  3  1  2  0
  4  5  2  0
  5  6  1  0
  6  7  1  0
  6  8  1  0
  9  1  1  0
  1  2  1  0
 23 24  1  0
 24 25  1  0
 24 26  2  0
 25 27  1  0
 27 28  1  0
 28 29  2  0
 29 30  1  0
 30 25  2  0
 30 31  1  0
 31 32  1  0
 28 33  1  0
 33 34  1  0
 33 35  1  0
 33 36  1  0
 32 37  1  0
 22 38  1  0
M  END
>  <ID_NEW>
CPDPP3391

>  <pEC50>
5.769475078642881

$$$$

  SciTegic12180813042D

 32 35  0  0  0  0            999 V2000
   -5.1306    2.0209    0.0000 C   0  0
   -5.1318    1.3977    0.0000 C   0  0
   -4.5919    1.0890    0.0000 C   0  0
   -4.5937    2.3295    0.0000 C   0  0
   -4.0576    2.0246    0.0000 C   0  0
   -4.0583    1.3960    0.0000 C   0  0
   -2.9783    2.0322    0.0000 N   0  0
   -3.5165    2.3398    0.0000 C   0  0
   -5.6715    1.0816    0.0000 Cl  0  0
   -3.5169    2.9606    0.0000 O   0  0
   -2.4368    2.3450    0.0000 C   0  0
   -1.9022    2.0381    0.0000 C   0  0
   -1.3634    2.3567    0.0000 C   0  0
   -1.3668    2.9755    0.0000 C   0  0
   -0.8317    3.2905    0.0000 C   0  0
   -0.2908    2.9849    0.0000 C   0  0
   -0.2859    2.3675    0.0000 C   0  0
   -0.8240    2.0505    0.0000 C   0  0
    0.2487    3.2919    0.0000 S   0  0
    0.7862    3.6042    0.0000 N   0  0
   -0.0606    3.8319    0.0000 O   0  0
    0.5582    2.7582    0.0000 O   0  0
   -2.9508    1.4614    0.0000 C   0  0
   -3.4890    1.1467    0.0000 N   0  0
    1.3219    3.2924    0.0000 C   0  0
    1.3917    2.6778    0.0000 S   0  0
    1.9989    2.5488    0.0000 C   0  0
    2.3065    3.0887    0.0000 N   0  0
    1.8913    3.5470    0.0000 N   0  0
    2.2519    1.9830    0.0000 C   0  0
    1.8842    1.4816    0.0000 C   0  0
    2.8682    1.9183    0.0000 C   0  0
  7  8  1  0
  2  9  1  0
  8 10  2  0
  7 11  1  0
 11 12  1  0
 12 13  1  0
 13 14  2  0
 14 15  1  0
 15 16  2  0
 16 17  1  0
 17 18  2  0
 18 13  1  0
  1  2  2  0
 19 20  1  0
 19 21  2  0
 19 22  2  0
 16 19  1  0
  2  3  1  0
  3  6  2  0
  5  4  2  0
  4  1  1  0
  5  6  1  0
  5  8  1  0
  6 24  1  0
  7 23  1  0
 23 24  2  0
 20 25  1  0
 25 26  1  0
 26 27  1  0
 27 28  2  0
 28 29  1  0
 29 25  2  0
 27 30  1  0
 30 31  1  0
 30 32  1  0
M  END
>  <ID_NEW>
CPDPP3392

>  <pEC50>
5.769188685277424

$$$$

  SciTegic12180813002D

 33 36  0  0  0  0            999 V2000
    0.5257    2.1464    0.0000 C   0  0
   -0.1925    2.5572    0.0000 C   0  0
   -0.9052    2.1407    0.0000 C   0  0
    0.5317    1.3235    0.0000 C   0  0
   -0.1963    3.3822    0.0000 C   0  0
    0.5162    3.7980    0.0000 F   0  0
   -0.9127    3.7914    0.0000 F   0  0
    0.6015    3.1723    0.0000 F   0  0
   -0.1781    0.9047    0.0000 C   0  0
   -0.8962    1.3138    0.0000 C   0  0
   -1.5072    0.7573    0.0000 S   0  0
   -1.1667    0.0042    0.0000 C   0  0
   -0.3454    0.0954    0.0000 N   0  0
   -3.9545    0.0108    0.0000 C   0  0
   -3.9560   -0.7392    0.0000 C   0  0
   -3.3079   -1.1109    0.0000 C   0  0
   -2.6583   -0.7366    0.0000 C   0  0
   -2.6609    0.0134    0.0000 C   0  0
   -3.3090    0.3892    0.0000 C   0  0
   -2.0019   -1.1041    0.0000 C   0  0
   -4.6109    0.3866    0.0000 C   0  0
   -3.3158    1.1392    0.0000 F   0  0
    0.5937   -1.0989    0.0000 N   0  0
    0.5952   -1.8427    0.0000 C   0  0
    1.2399   -0.7205    0.0000 C   0  0
   -0.0582   -0.7231    0.0000 C   0  0
   -0.7044   -1.1015    0.0000 C   0  0
   -1.3563   -0.7257    0.0000 N   0  0
   -4.6934    1.1367    0.0000 N   0  0
   -5.4338    1.2913    0.0000 C   0  0
   -5.8096    0.6349    0.0000 O   0  0
   -5.3014    0.0747    0.0000 N   0  0
   -5.7439    1.9812    0.0000 O   0  0
  1  2  2  0
  2  3  1  0
  3 10  2  0
  9  4  2  0
  4  1  1  0
  2  5  1  0
  5  6  1  0
  5  7  1  0
  5  8  1  0
  9 10  1  0
 10 11  1  0
 11 12  1  0
 12 13  2  0
 13  9  1  0
 17 18  1  0
 15 16  1  0
 19 22  1  0
 18 19  2  0
 19 14  1  0
 14 15  2  0
 17 20  1  0
 16 17  2  0
 14 21  1  0
 23 24  1  0
 23 25  1  0
 23 26  1  0
 26 27  1  0
 27 28  1  0
 20 28  1  0
 28 12  1  0
 21 29  1  0
 29 30  1  0
 30 31  1  0
 31 32  1  0
 32 21  2  0
 30 33  2  0
M  END
>  <ID_NEW>
CPDPP3393

>  <pEC50>
5.761033658167113

$$$$

  -MTS-   10172316532D 0   0.00000     0.00000     0

 44 48  0  0  0  0  0  0  0  0999 V2000
   -4.2080   -4.4460    0.0000 C   0  0  0  0  0  0  0  0  0  0  0  0
   -4.2080   -5.3830    0.0000 C   0  0  1  0  0  0  0  0  0  0  0  0
   -3.4000   -5.8500    0.0000 C   0  0  0  0  0  0  0  0  0  0  0  0
   -2.5880   -5.3830    0.0000 C   0  0  0  0  0  0  0  0  0  0  0  0
   -2.5880   -4.4460    0.0000 C   0  0  2  0  0  0  0  0  0  0  0  0
   -3.4000   -3.9750    0.0000 C   0  0  0  0  0  0  0  0  0  0  0  0
   -5.0200   -5.8520    0.0000 C   0  0  0  0  0  0  0  0  0  0  0  0
   -1.7760   -3.9780    0.0000 C   0  0  0  0  0  0  0  0  0  0  0  0
   -0.9190   -4.3620    0.0000 N   0  0  0  0  0  0  0  0  0  0  0  0
   -0.2910   -3.6660    0.0000 C   0  0  0  0  0  0  0  0  0  0  0  0
   -0.7590   -2.8530    0.0000 C   0  0  0  0  0  0  0  0  0  0  0  0
   -1.6770   -3.0480    0.0000 S   0  0  0  0  0  0  0  0  0  0  0  0
    0.6410   -3.7650    0.0000 C   0  0  0  0  0  0  0  0  0  0  0  0
    0.8790   -4.6670    0.0000 O   0  0  0  0  0  0  0  0  0  0  0  0
    1.2510   -3.0530    0.0000 N   0  0  0  0  0  0  0  0  0  0  0  0
    2.1740   -3.2300    0.0000 C   0  0  0  0  0  0  0  0  0  0  0  0
    2.7840   -2.5230    0.0000 C   0  0  0  0  0  0  0  0  0  0  0  0
    2.4770   -1.6370    0.0000 C   0  0  0  0  0  0  0  0  0  0  0  0
    1.5550   -1.4610    0.0000 C   0  0  0  0  0  0  0  0  0  0  0  0
    0.9390   -2.1720    0.0000 C   0  0  0  0  0  0  0  0  0  0  0  0
    3.0900   -0.9270    0.0000 C   0  0  0  0  0  0  0  0  0  0  0  0
    4.0110   -1.1040    0.0000 F   0  0  0  0  0  0  0  0  0  0  0  0
    2.7820   -0.0420    0.0000 F   0  0  0  0  0  0  0  0  0  0  0  0
    3.6160   -1.7030    0.0000 F   0  0  0  0  0  0  0  0  0  0  0  0
   -0.3770   -1.9970    0.0000 C   0  0  0  0  0  0  0  0  0  0  0  0
    0.5550   -1.9000    0.0000 C   0  0  0  0  0  0  0  0  0  0  0  0
   -0.9280   -1.2380    0.0000 O   0  0  0  0  0  0  0  0  0  0  0  0
   -0.5460   -0.3820    0.0000 C   0  0  0  0  0  0  0  0  0  0  0  0
    0.3840   -0.2880    0.0000 C   0  0  0  0  0  0  0  0  0  0  0  0
    0.7670    0.5670    0.0000 C   0  0  0  0  0  0  0  0  0  0  0  0
    0.2160    1.3270    0.0000 C   0  0  0  0  0  0  0  0  0  0  0  0
   -0.7210    1.2260    0.0000 C   0  0  0  0  0  0  0  0  0  0  0  0
   -1.0990    0.3710    0.0000 C   0  0  0  0  0  0  0  0  0  0  0  0
    1.6990    0.6630    0.0000 F   0  0  0  0  0  0  0  0  0  0  0  0
    0.5970    2.1830    0.0000 C   0  0  0  0  0  0  0  0  0  0  0  0
    1.5290    2.2820    0.0000 N   0  0  0  0  0  0  0  0  0  0  0  0
    0.0450    2.9420    0.0000 N   0  0  0  0  0  0  0  0  0  0  0  0
    0.4260    3.7980    0.0000 O   0  0  0  0  0  0  0  0  0  0  0  0
    1.5250    3.2210    0.0000 C   0  0  0  0  0  0  0  0  0  0  0  0
    2.3350    3.6930    0.0000 O   0  0  0  0  0  0  0  0  0  0  0  0
   -5.8320   -5.3830    0.0000 F   0  0  0  0  0  0  0  0  0  0  0  0
   -5.0200   -6.7890    0.0000 F   0  0  0  0  0  0  0  0  0  0  0  0
   -5.2630   -4.9460    0.0000 F   0  0  0  0  0  0  0  0  0  0  0  0
    1.0210   -1.0870    0.0000 C   0  0  0  0  0  0  0  0  0  0  0  0
  1  2  1  0  0  0  0
  1  6  1  0  0  0  0
  2  3  1  0  0  0  0
  3  4  1  0  0  0  0
  4  5  1  0  0  0  0
  5  6  1  0  0  0  0
  2  7  1  1  0  0  0
  5  8  1  6  0  0  0
  8  9  2  0  0  0  0
  9 10  1  0  0  0  0
 10 11  2  0  0  0  0
 11 12  1  0  0  0  0
 12  8  1  0  0  0  0
 10 13  1  0  0  0  0
 13 14  2  0  0  0  0
 13 15  1  0  0  0  0
 15 16  1  0  0  0  0
 15 20  1  0  0  0  0
 16 17  1  0  0  0  0
 17 18  1  0  0  0  0
 18 19  1  0  0  0  0
 19 20  1  0  0  0  0
 18 21  1  0  0  0  0
 21 22  1  0  0  0  0
 21 23  1  0  0  0  0
 21 24  1  0  0  0  0
 11 25  1  0  0  0  0
 25 26  1  0  0  0  0
 25 27  1  0  0  0  0
 27 28  1  0  0  0  0
 28 29  2  0  0  0  0
 29 30  1  0  0  0  0
 30 31  2  0  0  0  0
 31 32  1  0  0  0  0
 32 33  2  0  0  0  0
 33 28  1  0  0  0  0
 30 34  1  0  0  0  0
 31 35  1  0  0  0  0
 35 36  1  0  0  0  0
 35 37  2  0  0  0  0
 37 38  1  0  0  0  0
 36 39  1  0  0  0  0
 39 40  2  0  0  0  0
 38 39  1  0  0  0  0
  7 41  1  0  0  0  0
  7 42  1  0  0  0  0
  7 43  1  0  0  0  0
 26 44  1  0  0  0  0
V    2 M1
V    5 M1
M  END
>  <ID_NEW>
CPDPP3394

>  <pEC50>
5.743282097437528

$$$$

  SciTegic12180813012D

 39 43  0  0  0  0            999 V2000
   -0.7671   -2.3678    0.0000 C   0  0
   -0.3059   -1.7502    0.0000 C   0  0
   -0.6085   -1.0467    0.0000 C   0  0
   -1.5263   -2.2829    0.0000 C   0  0
   -1.8315   -1.5778    0.0000 C   0  0
   -1.3736   -0.9606    0.0000 C   0  0
   -1.8175   -0.3290    0.0000 S   0  0
   -2.5564   -0.5609    0.0000 C   0  0
   -2.5649   -1.3335    0.0000 N   0  0
    0.4551   -1.8376    0.0000 C   0  0
    0.7611   -2.5451    0.0000 F   0  0
    0.9143   -1.2216    0.0000 F   0  0
    0.1714   -2.5544    0.0000 F   0  0
   -3.1730   -0.1024    0.0000 N   0  0
   -2.5156    1.8196    0.0000 C   0  0
   -2.5136    1.0487    0.0000 C   0  0
   -1.8510    0.6636    0.0000 C   0  0
   -1.1863    1.0535    0.0000 C   0  0
   -1.1884    1.8202    0.0000 C   0  0
   -1.8551    2.2011    0.0000 C   0  0
   -0.5278    2.2017    0.0000 C   0  0
   -3.1783    0.6630    0.0000 C   0  0
   -1.8572    2.9678    0.0000 C   0  0
   -2.6024    3.1648    0.0000 F   0  0
   -1.7237    3.7277    0.0000 F   0  0
   -1.0876    2.9006    0.0000 F   0  0
   -4.5035   -1.6414    0.0000 N   0  0
   -5.1660   -1.2558    0.0000 C   0  0
   -4.5014   -2.4081    0.0000 C   0  0
   -3.8388   -1.2521    0.0000 C   0  0
   -5.8307   -1.6409    0.0000 C   0  0
   -5.1661   -2.7891    0.0000 C   0  0
   -3.8409   -0.4854    0.0000 C   0  0
   -5.8329   -2.4076    0.0000 C   0  0
    0.1756    1.8913    0.0000 N   0  0
    0.6892    2.4631    0.0000 O   0  0
    0.3034    3.1279    0.0000 C   0  0
   -0.4448    2.9689    0.0000 N   0  0
    0.6168    3.8317    0.0000 O   0  0
 27 28  1  0
 27 29  1  0
 27 30  1  0
 28 31  1  0
 29 32  1  0
 30 33  1  0
 31 34  1  0
 33 14  1  0
 32 34  1  0
 22 14  1  0
 16 22  1  0
 20 23  1  0
 23 24  1  0
 23 25  1  0
  1  2  2  0
 10 12  1  0
 10 13  1  0
  2  3  1  0
  3  6  2  0
  6  7  1  0
  7  8  1  0
  8  9  2  0
  9  5  1  0
  5  4  2  0
  4  1  1  0
  2 10  1  0
  5  6  1  0
 10 11  1  0
  8 14  1  0
 23 26  1  0
 15 16  2  0
 16 17  1  0
 17 18  2  0
 18 19  1  0
 19 20  2  0
 20 15  1  0
 19 21  1  0
 21 35  2  0
 35 36  1  0
 36 37  1  0
 37 38  1  0
 38 21  1  0
 37 39  2  0
M  END
>  <ID_NEW>
CPDPP3395

>  <pEC50>
5.7418834664322995

$$$$

  SciTegic12180813002D

 39 42  0  0  0  0            999 V2000
    7.4288   -1.5886    0.0000 C   0  0
    6.6037   -1.6503    0.0000 C   0  0
    6.2464   -2.3945    0.0000 C   0  0
    6.7130   -3.0770    0.0000 C   0  0
    7.5409   -3.0052    0.0000 C   0  0
    7.8945   -2.2670    0.0000 C   0  0
    6.1387   -0.9689    0.0000 C   0  0
    6.4963   -0.2254    0.0000 F   0  0
    5.3160   -1.0309    0.0000 F   0  0
    5.6785   -0.2818    0.0000 F   0  0
    8.0090   -3.6903    0.0000 C   0  0
    7.7329   -4.4663    0.0000 S   0  0
    8.3880   -4.9676    0.0000 C   0  0
    9.0674   -4.4995    0.0000 C   0  0
    8.8319   -3.7088    0.0000 N   0  0
    9.8455   -4.7737    0.0000 C   0  0
    9.9970   -5.5847    0.0000 C   0  0
   10.7750   -5.8590    0.0000 C   0  0
   10.9264   -6.6700    0.0000 C   0  0
    8.6292   -6.3742    0.0000 C   0  0
    7.9861   -6.8166    0.0000 N   0  0
    9.5272   -8.3218    0.0000 C   0  0
    9.2851   -7.5165    0.0000 S   0  0
    8.8476   -8.7653    0.0000 N   0  0
   10.2970   -8.6194    0.0000 C   0  0
    8.4587   -7.4977    0.0000 C   0  0
    8.1878   -8.2937    0.0000 N   0  0
   10.4236   -9.4344    0.0000 C   0  0
   10.9398   -8.0987    0.0000 C   0  0
    4.6840   -6.9927    0.0000 C   0  0
    5.0655   -6.2554    0.0000 C   0  0
    5.1307   -7.6822    0.0000 C   0  0
    3.8584   -7.0334    0.0000 O   0  0
    5.8897   -6.2094    0.0000 C   0  0
    5.9540   -7.6499    0.0000 C   0  0
    6.3396   -6.9046    0.0000 C   0  0
    7.1612   -6.8627    0.0000 S   0  0
    7.1603   -6.0329    0.0000 O   0  0
    7.1639   -7.6862    0.0000 O   0  0
 11 12  1  0
  5  6  2  0
  6  1  1  0
 20 21  1  0
  1  2  2  0
  2  7  1  0
 12 13  1  0
 13 14  2  0
 14 15  1  0
 15 11  2  0
  3  4  2  0
 14 16  1  0
  7  8  1  0
 16 17  1  0
 17 18  1  0
  7  9  1  0
 18 19  1  0
  4  5  1  0
 13 20  1  0
  7 10  1  0
  2  3  1  0
  5 11  1  0
 22 23  1  0
 22 24  2  0
 22 25  1  0
 23 26  1  0
 24 27  1  0
 25 28  1  0
 25 29  1  0
 26 21  1  0
 26 27  2  0
 30 31  1  0
 30 32  2  0
 30 33  1  0
 31 34  2  0
 32 35  1  0
 34 36  1  0
 36 37  1  0
 37 38  2  0
 37 39  2  0
 35 36  2  0
 37 21  1  0
M  END
>  <ID_NEW>
CPDPP3396

>  <pEC50>
5.736606211215981

$$$$

  SciTegic12180813062D

 34 36  0  0  0  0            999 V2000
   -2.1583    3.7892    0.0000 N   0  0
   -0.7210    3.7899    0.0000 C   0  0
   -0.0034    3.3716    0.0000 C   0  0
   -0.0006    2.5491    0.0000 C   0  0
    0.7120    2.1349    0.0000 C   0  0
    1.4285    2.5498    0.0000 C   0  0
    1.4279    3.3750    0.0000 C   0  0
    0.7105    3.7854    0.0000 C   0  0
    2.1499    2.1290    0.0000 S   0  0
    1.7280    1.4082    0.0000 N   0  0
    2.8689    1.7074    0.0000 O   0  0
    2.5694    2.8467    0.0000 O   0  0
    2.1379    0.6865    0.0000 C   0  0
    1.8868   -0.0960    0.0000 S   0  0
    2.5561   -0.5809    0.0000 C   0  0
    3.2195   -0.1001    0.0000 N   0  0
    2.9638    0.6802    0.0000 N   0  0
    2.5616   -1.4058    0.0000 C   0  0
    1.8468   -1.8185    0.0000 C   0  0
    3.2778   -1.8179    0.0000 C   0  0
   -1.4407    3.3791    0.0000 C   0  0
   -3.5946    2.1421    0.0000 C   0  0
   -2.8760    2.5622    0.0000 C   0  0
   -3.5882    1.3253    0.0000 C   0  0
   -2.1647    2.1569    0.0000 C   0  0
   -2.8748    3.3788    0.0000 C   0  0
   -2.8590    0.9050    0.0000 C   0  0
   -2.1617    1.3210    0.0000 C   0  0
   -3.5910    3.7989    0.0000 O   0  0
   -4.3118    2.5499    0.0000 O   0  0
   -5.0235    2.1326    0.0000 C   0  0
   -5.6709    1.7511    0.0000 F   0  0
   -5.8312    2.4318    0.0000 F   0  0
   -5.1552    1.2788    0.0000 F   0  0
 26  1  1  0
  5  6  2  0
  6  7  1  0
  7  8  2  0
  8  3  1  0
  9 10  1  0
  9 11  2  0
  6  9  1  0
  9 12  2  0
 10 13  1  0
 13 14  1  0
 14 15  1  0
 15 16  2  0
 16 17  1  0
 17 13  2  0
 15 18  1  0
 18 19  1  0
 18 20  1  0
  2  3  1  0
  3  4  2  0
  4  5  1  0
  2 21  1  0
 21  1  1  0
 22 23  2  0
 22 24  1  0
 23 25  1  0
 23 26  1  0
 24 27  2  0
 25 28  2  0
 26 29  2  0
 27 28  1  0
 22 30  1  0
 30 31  1  0
 31 32  1  0
 31 33  1  0
 31 34  1  0
M  END
>  <ID_NEW>
CPDPP3397

>  <pEC50>
5.734633120387348

$$$$

  SciTegic12180812562D

 31 34  0  0  0  0            999 V2000
    1.8003   -2.9590    0.0000 N   0  0
   -1.6926    0.7470    0.0000 O   0  0
   -0.9262    0.3815    0.0000 C   0  0
   -0.2283    0.8654    0.0000 C   0  0
    0.5411    0.4999    0.0000 C   0  0
    0.6100   -0.3538    0.0000 C   0  0
   -0.0910   -0.8335    0.0000 C   0  0
   -0.8617   -0.4680    0.0000 C   0  0
    1.3769   -0.7193    0.0000 S   0  0
    2.1976   -0.9440    0.0000 O   0  0
    1.6761    0.0778    0.0000 O   0  0
    1.8668   -2.1094    0.0000 C   0  0
    2.5908   -3.2861    0.0000 N   0  0
    3.1432   -2.6364    0.0000 C   0  0
    2.6959   -1.9122    0.0000 S   0  0
    3.9886   -2.7029    0.0000 C   0  0
    4.4707   -1.9994    0.0000 C   0  0
    4.3564   -3.4688    0.0000 C   0  0
    1.2213   -1.5569    0.0000 N   0  0
   -4.1659    1.5812    0.0000 C   0  0
   -4.5741    2.3323    0.0000 C   0  0
   -5.4288    2.3537    0.0000 C   0  0
   -5.8328    3.1006    0.0000 C   0  0
   -5.3864    3.8301    0.0000 C   0  0
   -4.5359    3.8086    0.0000 C   0  0
   -4.1277    3.0577    0.0000 C   0  0
   -3.3240    1.4700    0.0000 N   0  0
   -3.1652    0.6328    0.0000 C   0  0
   -3.9142    0.2244    0.0000 C   0  0
   -4.5295    0.8103    0.0000 O   0  0
   -2.3946    0.2631    0.0000 C   0  0
  3  4  2  0
  4  5  1  0
  5  6  2  0
  1 12  2  0
  1 13  1  0
 13 14  2  0
 14 15  1  0
 15 12  1  0
 14 16  1  0
  6  7  1  0
 16 17  1  0
 16 18  1  0
 12 19  1  0
  7  8  2  0
  8  3  1  0
  6  9  1  0
  9 10  2  0
  2  3  1  0
  9 11  2  0
  9 19  1  0
 24 25  1  0
 25 26  1  0
 20 21  1  0
 21 22  1  0
 21 26  1  0
 22 23  1  0
 20 27  2  0
 27 28  1  0
 28 29  2  0
 29 30  1  0
 30 20  1  0
 28 31  1  0
 23 24  1  0
  2 31  1  0
M  END
>  <ID_NEW>
CPDPP3398

>  <pEC50>
5.72988036273685

$$$$

  SciTegic12180813012D

 38 41  0  0  0  0            999 V2000
    6.8902   -2.4833    0.0000 C   0  0
    6.8891   -2.9273    0.0000 C   0  0
    7.2747   -3.1443    0.0000 C   0  0
    7.6578   -2.9268    0.0000 C   0  0
    7.6550   -2.4796    0.0000 C   0  0
    7.2729   -2.2705    0.0000 C   0  0
    8.0282   -2.2639    0.0000 C   0  0
    8.4170   -2.4745    0.0000 N   0  0
    8.0334   -3.1429    0.0000 F   0  0
    5.1413   -3.5416    0.0000 C   0  0
    4.7050   -3.5974    0.0000 C   0  0
    5.3722   -3.1602    0.0000 S   0  0
    5.4243   -3.8660    0.0000 N   0  0
    4.5437   -3.9925    0.0000 C   0  0
    4.4488   -3.2467    0.0000 C   0  0
    5.8004   -3.2631    0.0000 C   0  0
    5.8251   -3.7162    0.0000 C   0  0
    4.1143   -4.0518    0.0000 C   0  0
    4.0083   -3.3093    0.0000 C   0  0
    6.1238   -2.9788    0.0000 C   0  0
    6.1912   -3.9607    0.0000 C   0  0
    3.8473   -3.6981    0.0000 C   0  0
    6.5292   -3.1221    0.0000 O   0  0
    3.4225   -3.7493    0.0000 C   0  0
    2.9948   -3.7920    0.0000 F   0  0
    3.4603   -4.1803    0.0000 F   0  0
    3.3851   -3.3248    0.0000 F   0  0
    8.0253   -1.8209    0.0000 N   0  0
    8.4611   -1.7510    0.0000 C   0  0
    8.7375   -2.0833    0.0000 O   0  0
    8.6182   -1.3393    0.0000 O   0  0
    5.6792   -4.8166    0.0000 C   0  0
    5.6792   -5.3916    0.0000 C   0  0
    6.1745   -5.6708    0.0000 N   0  0
    6.1745   -4.5291    0.0000 N   0  0
    6.1764   -6.2366    0.0000 C   0  0
    6.6718   -6.5241    0.0000 C   0  0
    5.6830   -6.5274    0.0000 O   0  0
  1  2  2  0
  2  3  1  0
  3  4  2  0
  4  5  1  0
  5  6  2  0
  6  1  1  0
  5  7  1  0
  7  8  2  0
  4  9  1  0
 10 11  1  0
 10 12  1  0
 10 13  2  0
 11 14  1  0
 11 15  2  0
 12 16  1  0
 13 17  1  0
 14 18  2  0
 15 19  1  0
 16 20  1  0
 17 21  1  0
 18 22  1  0
 20 23  1  0
 22 24  1  0
 24 25  1  0
 24 26  1  0
 24 27  1  0
 16 17  2  0
 19 22  2  0
  2 23  1  0
  7 28  1  0
 28 29  1  0
  8 30  1  0
 29 30  1  0
 29 31  2  0
 32 33  1  0
 32 35  1  0
 33 34  1  0
 34 36  1  0
 36 37  1  0
 36 38  2  0
 21 35  1  0
M  END
>  <ID_NEW>
CPDPP3399

>  <pEC50>
5.727748558277639

$$$$

  SciTegic12180813012D

 32 35  0  0  0  0            999 V2000
   -0.8003    3.4474    0.0000 C   0  0
   -3.7953    1.4361    0.0000 C   0  0
   -4.2120    1.3858    0.0000 C   0  0
   -3.5757    1.8000    0.0000 S   0  0
   -3.5241    1.1265    0.0000 N   0  0
   -4.3629    1.0079    0.0000 C   0  0
   -4.4484    1.7214    0.0000 C   0  0
   -3.1663    1.7057    0.0000 C   0  0
   -3.1395    1.2750    0.0000 C   0  0
   -4.7713    0.9558    0.0000 C   0  0
   -4.8679    1.6629    0.0000 C   0  0
   -2.8531    1.9757    0.0000 C   0  0
   -2.7914    1.0449    0.0000 C   0  0
   -5.0220    1.2914    0.0000 C   0  0
   -2.4604    1.8412    0.0000 O   0  0
   -5.4320    1.2334    0.0000 C   0  0
   -5.8333    1.2083    0.0000 F   0  0
   -5.3879    0.8331    0.0000 F   0  0
   -5.4643    1.6435    0.0000 F   0  0
   -2.1450    2.1116    0.0000 C   0  0
   -1.7472    1.9694    0.0000 C   0  0
   -1.4322    2.2446    0.0000 C   0  0
   -1.5056    2.6549    0.0000 C   0  0
   -1.9043    2.7920    0.0000 C   0  0
   -2.2230    2.5243    0.0000 C   0  0
   -1.1869    2.9322    0.0000 C   0  0
   -0.7945    2.7909    0.0000 N   0  0
   -1.1852    3.3335    0.0000 N   0  0
   -0.5038    3.1599    0.0000 O   0  0
   -0.6257    3.8333    0.0000 O   0  0
   -1.9873    3.2118    0.0000 F   0  0
   -2.8083    0.4125    0.0000 N   0  0
  1 28  1  0
 24 31  1  0
 13 32  1  0
  2  3  1  0
  2  4  1  0
  2  5  2  0
  3  6  1  0
  3  7  2  0
  4  8  1  0
  5  9  1  0
  6 10  2  0
  7 11  1  0
  8 12  1  0
  9 13  1  0
 10 14  1  0
 12 15  1  0
 14 16  1  0
 16 17  1  0
 16 18  1  0
 16 19  1  0
  8  9  2  0
 11 14  2  0
 15 20  1  0
 20 21  2  0
 21 22  1  0
 22 23  2  0
 23 24  1  0
 24 25  2  0
 25 20  1  0
 23 26  1  0
 26 27  2  0
 26 28  1  0
 27 29  1  0
  1 29  1  0
  1 30  2  0
M  END
>  <ID_NEW>
CPDPP3400

>  <pEC50>
5.723850577577903

$$$$

  SciTegic12180812332D

 40 45  0  0  0  0            999 V2000
   -4.4014    2.5625    0.0000 C   0  0
   -4.4026    1.7352    0.0000 C   0  0
   -3.6878    1.3223    0.0000 C   0  0
   -2.9713    1.7356    0.0000 C   0  0
   -2.9742    2.5662    0.0000 C   0  0
   -3.6896    2.9753    0.0000 C   0  0
   -5.1160    2.9749    0.0000 C   0  0
   -5.1162    3.7999    0.0000 F   0  0
   -5.8304    2.5622    0.0000 F   0  0
   -4.5328    3.5584    0.0000 F   0  0
   -2.2562    1.3243    0.0000 C   0  0
   -2.1681    0.5064    0.0000 N   0  0
   -1.3609    0.3361    0.0000 C   0  0
   -0.9495    1.0513    0.0000 C   0  0
   -1.5026    1.6634    0.0000 S   0  0
   -1.0242   -0.4170    0.0000 C   0  0
   -0.1292    1.1389    0.0000 C   0  0
    0.3569    0.4722    0.0000 N   0  0
    0.2052    1.8931    0.0000 O   0  0
    1.1772    0.5598    0.0000 C   0  0
    1.7308   -0.0486    0.0000 C   0  0
    1.5890    1.2787    0.0000 C   0  0
    2.3963    1.1086    0.0000 C   0  0
    2.4807    0.2890    0.0000 C   0  0
    3.2314   -0.0461    0.0000 C   0  0
    3.8983    0.4374    0.0000 C   0  0
    3.8096    1.2598    0.0000 C   0  0
    3.0587    1.5911    0.0000 C   0  0
    4.6522    0.1025    0.0000 S   0  0
    5.3193    0.5879    0.0000 N   0  0
    4.0625   -0.4792    0.0000 O   0  0
    5.3625   -0.3083    0.0000 O   0  0
    6.0732    0.2530    0.0000 C   0  0
    6.2461   -0.5509    0.0000 N   0  0
    7.0667   -0.6365    0.0000 N   0  0
    7.4017    0.1175    0.0000 C   0  0
    6.7881    0.6689    0.0000 S   0  0
    8.2085    0.2897    0.0000 C   0  0
    8.7611   -0.3229    0.0000 C   0  0
    8.4627    1.0746    0.0000 C   0  0
  1  2  2  0
  2  3  1  0
  3  4  2  0
  4  5  1  0
  5  6  2  0
  6  1  1  0
  1  7  1  0
  7  8  1  0
  7  9  1  0
  7 10  1  0
  4 11  1  0
 11 12  2  0
 12 13  1  0
 13 14  2  0
 14 15  1  0
 15 11  1  0
 13 16  1  0
 14 17  1  0
 17 18  1  0
 17 19  2  0
 18 20  1  0
 20 21  1  0
 21 24  1  0
 23 22  1  0
 22 20  1  0
 23 24  2  0
 24 25  1  0
 25 26  2  0
 26 27  1  0
 27 28  2  0
 28 23  1  0
 26 29  1  0
 29 30  1  0
 29 31  2  0
 29 32  2  0
 30 33  1  0
 33 34  2  0
 34 35  1  0
 35 36  2  0
 36 37  1  0
 37 33  1  0
 36 38  1  0
 38 39  1  0
 38 40  1  0
 40 39  1  0
M  END
>  <ID_NEW>
CPDPP3401

>  <pEC50>
5.714672431236822

$$$$

  SciTegic12180813042D

 27 30  0  0  0  0            999 V2000
   -5.8318    1.9497    0.0000 C   0  0
   -5.7005    1.1328    0.0000 C   0  0
   -4.9288    0.8397    0.0000 C   0  0
   -4.2878    1.3624    0.0000 C   0  0
   -4.4236    2.1818    0.0000 C   0  0
   -5.1953    2.4711    0.0000 C   0  0
   -3.7863    2.7057    0.0000 C   0  0
   -2.9887    2.5006    0.0000 N   0  0
   -2.5445    3.1959    0.0000 C   0  0
   -3.0685    3.8332    0.0000 C   0  0
   -3.8364    3.5316    0.0000 O   0  0
   -1.7210    3.2452    0.0000 C   0  0
   -1.2665    2.5567    0.0000 C   0  0
   -0.4430    2.6060    0.0000 O   0  0
    0.0115    1.9175    0.0000 C   0  0
   -0.3581    1.1824    0.0000 C   0  0
    0.0956    0.4943    0.0000 C   0  0
    0.9200    0.5433    0.0000 C   0  0
    1.2886    1.2861    0.0000 C   0  0
    0.8327    1.9711    0.0000 C   0  0
    1.3754   -0.1447    0.0000 C   0  0
    2.1989   -0.0943    0.0000 C   0  0
    2.7238   -0.7264    0.0000 N   0  0
    3.4914   -0.4240    0.0000 O   0  0
    3.4410    0.3996    0.0000 C   0  0
    2.6422    0.6060    0.0000 N   0  0
    4.0775    0.9244    0.0000 O   0  0
  1  2  2  0
  2  3  1  0
  3  4  2  0
  4  5  1  0
  5  6  2  0
  6  1  1  0
  5  7  1  0
  7  8  2  0
  8  9  1  0
  9 10  2  0
 10 11  1  0
 11  7  1  0
  9 12  1  0
 12 13  1  0
 13 14  1  0
 14 15  1  0
 15 16  2  0
 16 17  1  0
 17 18  2  0
 18 19  1  0
 19 20  2  0
 20 15  1  0
 18 21  1  0
 21 22  1  0
 22 23  2  0
 23 24  1  0
 24 25  1  0
 25 26  1  0
 26 22  1  0
 25 27  2  0
M  END
>  <ID_NEW>
CPDPP3402

>  <pEC50>
5.714191495434407

$$$$

  SciTegic12180813002D

 37 39  0  0  0  0            999 V2000
    7.7916   -3.4083    0.0000 S   0  0
    7.9083   -2.1916    0.0000 O   0  0
    7.5041   -4.0666    0.0000 O   0  0
    8.3874   -3.6166    0.0000 N   0  0
    9.2166   -3.4041    0.0000 C   0  0
    9.9291   -2.9875    0.0000 S   0  0
   10.6416   -3.4000    0.0000 C   0  0
    9.4291   -4.2000    0.0000 N   0  0
   10.4166   -4.1958    0.0000 N   0  0
   11.4666   -3.4000    0.0000 C   0  0
   12.1791   -2.9833    0.0000 C   0  0
   12.0416   -3.9833    0.0000 C   0  0
    0.6027   -3.2833    0.0000 C   0  0
    0.6016   -4.1106    0.0000 C   0  0
    1.3164   -4.5235    0.0000 C   0  0
    2.0328   -4.1102    0.0000 C   0  0
    2.0300   -3.2796    0.0000 C   0  0
    1.3146   -2.8705    0.0000 C   0  0
   -0.1118   -2.8709    0.0000 C   0  0
   -0.1120   -2.0459    0.0000 F   0  0
   -0.8262   -3.2836    0.0000 F   0  0
    0.4714   -2.2874    0.0000 F   0  0
    1.3162   -5.3485    0.0000 O   0  0
    2.7480   -4.5215    0.0000 C   0  0
    2.7492   -5.3465    0.0000 O   0  0
    0.6016   -5.7608    0.0000 C   0  0
    0.6014   -6.5858    0.0000 C   0  0
    3.7333   -3.9874    0.0000 N   0  0
    4.4458   -3.5708    0.0000 C   0  0
    5.0291   -4.1541    0.0000 C   0  0
    5.6208   -3.5666    0.0000 C   0  0
    6.4133   -3.7810    0.0000 C   0  0
    6.9963   -3.1943    0.0000 C   0  0
    6.7794   -2.3944    0.0000 C   0  0
    5.9741   -2.1844    0.0000 C   0  0
    5.3945   -2.7727    0.0000 C   0  0
    4.5952   -2.5685    0.0000 Cl  0  0
  8  9  1  0
  7 10  1  0
 10 11  1  0
 10 12  1  0
  1  2  2  0
  1  3  2  0
  1  4  1  0
  4  5  1  0
  5  6  1  0
  6  7  1  0
  5  8  2  0
  7  9  2  0
 18 13  1  0
 24 25  2  0
 13 14  2  0
 23 26  1  0
 13 19  1  0
 26 27  1  0
 15 16  2  0
 19 20  1  0
 19 21  1  0
 16 17  1  0
 19 22  1  0
 14 15  1  0
 15 23  1  0
 17 18  2  0
 16 24  1  0
 28 29  1  0
 29 30  1  0
 30 31  1  0
 31 32  2  0
 32 33  1  0
 33 34  2  0
 34 35  1  0
 35 36  2  0
 36 31  1  0
 24 28  1  0
 36 37  1  0
 33  1  1  0
M  END
>  <ID_NEW>
CPDPP3403

>  <pEC50>
5.692455296808797

$$$$

  SciTegic12180812342D

 36 39  0  0  0  0            999 V2000
   -1.9880    2.2290    0.0000 C   0  0
   -1.7949    1.6322    0.0000 C   0  0
   -1.1807    1.5032    0.0000 C   0  0
   -0.7629    1.9688    0.0000 C   0  0
   -0.9610    2.5675    0.0000 C   0  0
   -1.5705    2.6940    0.0000 C   0  0
   -0.5451    3.0341    0.0000 C   0  0
   -0.5855    3.6588    0.0000 N   0  0
    0.0459    2.8305    0.0000 N   0  0
   -2.2126    1.1674    0.0000 O   0  0
   -2.0191    0.5731    0.0000 C   0  0
   -2.4370    0.1084    0.0000 C   0  0
   -3.2296   -0.1085    0.0000 S   0  0
   -3.1678   -0.6991    0.0000 C   0  0
   -2.6345   -0.8141    0.0000 N   0  0
   -2.2651   -0.4105    0.0000 C   0  0
   -1.7301   -0.5248    0.0000 C   0  0
   -1.5616   -1.0454    0.0000 C   0  0
   -1.0264   -1.1597    0.0000 C   0  0
   -0.8580   -1.6802    0.0000 C   0  0
   -3.6930   -1.0378    0.0000 C   0  0
   -4.2487   -0.7547    0.0000 C   0  0
   -4.7735   -1.0930    0.0000 C   0  0
   -4.7431   -1.7179    0.0000 C   0  0
   -4.1832   -2.0031    0.0000 C   0  0
   -3.6608   -1.6631    0.0000 C   0  0
   -5.2679   -2.0573    0.0000 C   0  0
   -5.8302   -1.7745    0.0000 F   0  0
   -5.2363   -2.6815    0.0000 F   0  0
   -5.4600   -1.4626    0.0000 F   0  0
    0.5628    3.1740    0.0000 C   0  0
    1.0225    2.7584    0.0000 O   0  0
    0.5583    3.8000    0.0000 O   0  0
   -0.1667    1.8125    0.0000 S   0  0
   -0.5500    1.2375    0.0000 O   0  0
    0.3877    1.3950    0.0000 C   0  0
 27 29  1  0
 27 30  1  0
  1  2  2  0
  2  3  1  0
  3  4  2  0
  4  5  1  0
  5  6  2  0
  6  1  1  0
  5  7  1  0
  7  8  2  0
  9 31  1  0
 31 32  2  0
 31 33  1  0
 33  8  1  0
  4 34  1  0
 34 35  2  0
 34 36  1  0
  7  9  1  0
  2 10  1  0
 10 11  1  0
 11 12  1  0
 12 13  1  0
 14 15  2  0
 15 16  1  0
 16 12  2  0
 13 14  1  0
 16 17  1  0
 17 18  1  0
 18 19  1  0
 19 20  1  0
 14 21  1  0
 21 22  2  0
 22 23  1  0
 23 24  2  0
 24 25  1  0
 25 26  2  0
 26 21  1  0
 24 27  1  0
 27 28  1  0
M  END
>  <ID_NEW>
CPDPP3404

>  <pEC50>
5.6905172990784365

$$$$

  SciTegic12180813032D

 37 41  0  0  0  0            999 V2000
   -4.4141    1.6254    0.0000 C   0  0
   -4.7892    0.8147    0.0000 C   0  0
   -4.2766    0.0874    0.0000 C   0  0
   -3.3885    0.1668    0.0000 C   0  0
   -3.0172    0.9732    0.0000 C   0  0
   -3.5298    1.7004    0.0000 C   0  0
   -5.6731    0.7356    0.0000 Cl  0  0
   -2.1374    1.0522    0.0000 C   0  0
   -1.5560    0.3839    0.0000 N   0  0
   -0.7404    0.7300    0.0000 C   0  0
   -0.8199    1.6140    0.0000 S   0  0
   -1.6803    1.8138    0.0000 C   0  0
    0.0167    0.2768    0.0000 N   0  0
    0.7932    0.7081    0.0000 C   0  0
    1.5544    0.2507    0.0000 C   0  0
    2.3310    0.6816    0.0000 C   0  0
    3.0926    0.2246    0.0000 C   0  0
    3.8650    0.6556    0.0000 C   0  0
    3.8802    1.5397    0.0000 C   0  0
    3.1227    1.9971    0.0000 C   0  0
    2.3462    1.5658    0.0000 C   0  0
    4.6525    1.9710    0.0000 C   0  0
    0.7586   -1.0607    0.0000 C   0  0
    0.0014   -0.6074    0.0000 C   0  0
    0.7433   -1.9448    0.0000 O   0  0
    1.5004   -2.3981    0.0000 C   0  0
    5.4571    1.6019    0.0000 N   0  0
    6.0623    2.2521    0.0000 O   0  0
    5.6310    3.0286    0.0000 C   0  0
    4.7593    2.8582    0.0000 N   0  0
    6.0056    3.8298    0.0000 O   0  0
    2.2756   -1.9691    0.0000 C   0  0
    3.0338   -2.4290    0.0000 C   0  0
    3.8086   -1.9965    0.0000 C   0  0
    3.8231   -1.1091    0.0000 C   0  0
    3.0564   -0.6559    0.0000 C   0  0
    2.2847   -1.0868    0.0000 C   0  0
 15 16  1  0
 16 17  2  0
  5  8  1  0
 17 18  1  0
  8  9  1  0
 18 19  2  0
  3  4  2  0
 19 20  1  0
  1  2  2  0
 20 21  2  0
 21 16  1  0
  4  5  1  0
 19 22  1  0
  9 10  2  0
 10 11  1  0
 11 12  1  0
 12  8  2  0
  5  6  2  0
 23 24  1  0
 23 25  1  0
 25 26  1  0
 13 24  1  0
 10 13  1  0
  6  1  1  0
 13 14  1  0
  2  3  1  0
 14 15  1  0
  2  7  1  0
 22 27  2  0
 27 28  1  0
 28 29  1  0
 29 30  1  0
 30 22  1  0
 29 31  2  0
 26 32  1  0
 32 33  2  0
 33 34  1  0
 34 35  2  0
 35 36  1  0
 36 37  2  0
 37 32  1  0
M  END
>  <ID_NEW>
CPDPP3405

>  <pEC50>
5.6859689284090065

$$$$

  -MTS-   10172316532D 0   0.00000     0.00000     0

 33 36  0  0  0  0  0  0  0  0999 V2000
    4.4910   -1.8750    0.0000 C   0  0  0  0  0  0  0  0  0  0  0  0
    4.1640   -2.8190    0.0000 C   0  0  0  0  0  0  0  0  0  0  0  0
    4.7300   -3.6410    0.0000 C   0  0  0  0  0  0  0  0  0  0  0  0
    5.7290   -3.6640    0.0000 C   0  0  0  0  0  0  0  0  0  0  0  0
    1.6240   -6.2410    0.0000 C   0  0  0  0  0  0  0  0  0  0  0  0
    0.7200   -5.8130    0.0000 C   0  0  2  0  0  0  0  0  0  0  0  0
    0.6350   -4.8170    0.0000 C   0  0  0  0  0  0  0  0  0  0  0  0
    1.4550   -4.2480    0.0000 C   0  0  0  0  0  0  0  0  0  0  0  0
    2.3590   -4.6750    0.0000 C   0  0  2  0  0  0  0  0  0  0  0  0
    2.4440   -5.6720    0.0000 C   0  0  0  0  0  0  0  0  0  0  0  0
    3.1870   -4.1060    0.0000 C   0  0  0  0  0  0  0  0  0  0  0  0
    3.2050   -3.1060    0.0000 N   0  0  0  0  0  0  0  0  0  0  0  0
    4.1260   -4.4370    0.0000 O   0  0  0  0  0  0  0  0  0  0  0  0
   -0.1080   -6.3830    0.0000 C   0  0  0  0  0  0  0  0  0  0  0  0
   -0.8700   -5.7360    0.0000 F   0  0  0  0  0  0  0  0  0  0  0  0
   -0.8140   -7.0860    0.0000 F   0  0  0  0  0  0  0  0  0  0  0  0
    0.5370   -7.1520    0.0000 F   0  0  0  0  0  0  0  0  0  0  0  0
    5.4720   -1.6880    0.0000 O   0  0  0  0  0  0  0  0  0  0  0  0
    5.4670   -0.6870    0.0000 C   0  0  0  0  0  0  0  0  0  0  0  0
    6.2100   -4.5410    0.0000 O   0  0  0  0  0  0  0  0  0  0  0  0
    7.2140   -4.5650    0.0000 C   0  0  0  0  0  0  0  0  0  0  0  0
    7.6890   -5.4470    0.0000 C   0  0  0  0  0  0  0  0  0  0  0  0
    8.6910   -5.4720    0.0000 C   0  0  0  0  0  0  0  0  0  0  0  0
    9.2150   -4.6160    0.0000 C   0  0  0  0  0  0  0  0  0  0  0  0
    8.7290   -3.7310    0.0000 C   0  0  0  0  0  0  0  0  0  0  0  0
    7.7290   -3.7110    0.0000 C   0  0  0  0  0  0  0  0  0  0  0  0
   10.2190   -4.6390    0.0000 C   0  0  0  0  0  0  0  0  0  0  0  0
    9.2520   -2.8690    0.0000 Cl  0  0  0  0  0  0  0  0  0  0  0  0
   10.7900   -5.4610    0.0000 N   0  0  0  0  0  0  0  0  0  0  0  0
   11.7520   -5.1730    0.0000 O   0  0  0  0  0  0  0  0  0  0  0  0
   11.7760   -4.1690    0.0000 C   0  0  0  0  0  0  0  0  0  0  0  0
   10.8280   -3.8370    0.0000 N   0  0  0  0  0  0  0  0  0  0  0  0
   12.6020   -3.5980    0.0000 O   0  0  0  0  0  0  0  0  0  0  0  0
  1  2  1  0  0  0  0
  3  4  1  0  0  0  0
  5  6  1  0  0  0  0
  5 10  1  0  0  0  0
 11 12  2  0  0  0  0
  6  7  1  0  0  0  0
 11 13  1  0  0  0  0
  7  8  1  0  0  0  0
  6 14  1  1  0  0  0
  8  9  1  0  0  0  0
 14 15  1  0  0  0  0
  9 10  1  0  0  0  0
 14 16  1  0  0  0  0
  9 11  1  1  0  0  0
 14 17  1  0  0  0  0
  2 12  1  0  0  0  0
  3 13  1  0  0  0  0
  2  3  2  0  0  0  0
  1 18  1  0  0  0  0
 18 19  1  0  0  0  0
  4 20  1  0  0  0  0
 20 21  1  0  0  0  0
 21 22  2  0  0  0  0
 22 23  1  0  0  0  0
 23 24  2  0  0  0  0
 24 25  1  0  0  0  0
 25 26  2  0  0  0  0
 26 21  1  0  0  0  0
 24 27  1  0  0  0  0
 25 28  1  0  0  0  0
 27 29  2  0  0  0  0
 29 30  1  0  0  0  0
 30 31  1  0  0  0  0
 31 32  1  0  0  0  0
 32 27  1  0  0  0  0
 31 33  2  0  0  0  0
V    6 M1
V    9 M1
M  END
>  <ID_NEW>
CPDPP3406

>  <pEC50>
5.67260092909445

$$$$

  SciTegic12180813072D

 32 35  0  0  0  0            999 V2000
    7.0870   -4.4071    0.0000 C   0  0
    6.0636   -6.3415    0.0000 C   0  0
    6.6680   -5.7739    0.0000 C   0  0
    6.4828   -4.9688    0.0000 C   0  0
    5.6903   -4.7284    0.0000 C   0  0
    5.0861   -5.2901    0.0000 C   0  0
    5.2711   -6.1011    0.0000 C   0  0
    4.6669   -6.6628    0.0000 S   0  0
    7.4575   -6.0172    0.0000 Cl  0  0
    5.2807   -7.2166    0.0000 O   0  0
    4.1682   -7.3230    0.0000 O   0  0
    0.4299   -4.8570    0.0000 C   0  0
    1.1300   -5.2968    0.0000 C   0  0
    1.8603   -4.9090    0.0000 C   0  0
    1.8904   -4.0813    0.0000 C   0  0
    1.1903   -3.6414    0.0000 C   0  0
    0.4570   -4.0321    0.0000 C   0  0
    2.5635   -5.3461    0.0000 N   0  0
   -0.2432   -3.5922    0.0000 C   0  0
   -0.0028   -2.7997    0.0000 F   0  0
   -0.6180   -4.3283    0.0000 F   0  0
   -1.0114   -3.2808    0.0000 F   0  0
    2.5333   -6.1737    0.0000 C   0  0
    3.2365   -6.6108    0.0000 C   0  0
    3.9668   -6.2229    0.0000 N   0  0
    3.9938   -5.3981    0.0000 C   0  0
    3.2937   -4.9582    0.0000 C   0  0
    7.8956   -4.5649    0.0000 N   0  0
    8.2967   -3.8440    0.0000 O   0  0
    7.7349   -3.2397    0.0000 C   0  0
    6.9867   -3.5874    0.0000 N   0  0
    7.9689   -2.4474    0.0000 O   0  0
  8 11  2  0
  6  7  2  0
  7  2  1  0
  2  3  2  0
  7  8  1  0
  4  5  2  0
 17 19  1  0
 19 20  1  0
 15 16  1  0
 19 21  1  0
 13 14  1  0
 19 22  1  0
 18 23  1  0
 16 17  2  0
 17 12  1  0
 12 13  2  0
 14 18  1  0
 14 15  2  0
 18 27  1  0
 23 24  1  0
 24 25  1  0
 25 26  1  0
 26 27  1  0
  8 25  1  0
  1  4  1  0
  1 28  2  0
  3  9  1  0
  5  6  1  0
  8 10  2  0
 28 29  1  0
 29 30  1  0
 30 31  1  0
 31  1  1  0
  3  4  1  0
 30 32  2  0
M  END
>  <ID_NEW>
CPDPP3407

>  <pEC50>
5.657739158683657

$$$$

  SciTegic12180813012D

 30 32  0  0  0  0            999 V2000
   -0.0103    2.7430    0.0000 C   0  0
   -1.4631    2.3697    0.0000 C   0  0
   -1.8662    0.9249    0.0000 C   0  0
   -0.8165   -0.1466    0.0000 C   0  0
    0.6363    0.2267    0.0000 C   0  0
    1.0394    1.6715    0.0000 C   0  0
   -2.5129    3.4412    0.0000 C   0  0
    1.6860   -0.8448    0.0000 S   0  0
   -3.9657    3.0678    0.0000 C   0  0
   -5.0154    4.1393    0.0000 N   0  0
    2.5337   -2.0823    0.0000 O   0  0
    0.5271   -1.7971    0.0000 O   0  0
    2.9927   -0.1081    0.0000 N   0  0
    4.2840   -0.8714    0.0000 C   0  0
    4.4254   -2.3647    0.0000 N   0  0
    5.8894   -2.6916    0.0000 N   0  0
    6.6527   -1.4004    0.0000 C   0  0
    5.6605   -0.2754    0.0000 S   0  0
    8.1460   -1.2589    0.0000 C   0  0
    8.7701    0.1051    0.0000 C   0  0
    9.0152   -2.4814    0.0000 C   0  0
   -7.5179    4.8375    0.0000 C   0  0
   -7.1148    6.2823    0.0000 C   0  0
   -8.9707    4.4641    0.0000 C   0  0
   -6.4682    3.7660    0.0000 C   0  0
   -8.1646    7.3538    0.0000 C   0  0
  -10.0204    5.5356    0.0000 C   0  0
   -6.8712    2.3212    0.0000 O   0  0
   -9.6173    6.9804    0.0000 C   0  0
   -7.7615    8.7986    0.0000 Cl  0  0
 16 17  2  0
 17 18  1  0
 18 14  1  0
 17 19  1  0
 19 20  1  0
 19 21  1  0
  1  2  2  0
  2  3  1  0
  3  4  2  0
  4  5  1  0
  5  6  2  0
  6  1  1  0
  2  7  1  0
  5  8  1  0
  7  9  1  0
  9 10  1  0
  8 11  2  0
  8 12  2  0
  8 13  1  0
 13 14  1  0
 14 15  2  0
 15 16  1  0
 22 23  2  0
 22 24  1  0
 22 25  1  0
 23 26  1  0
 24 27  2  0
 25 28  2  0
 26 29  2  0
 26 30  1  0
 27 29  1  0
 10 25  1  0
M  END
>  <ID_NEW>
CPDPP3408

>  <pEC50>
5.624032077318677

$$$$

  SciTegic12180813052D

 34 37  0  0  0  0            999 V2000
    3.2814   -2.9107    0.0000 O   0  0
    4.2862   -2.9346    0.0000 C   0  0
    4.7604   -3.8168    0.0000 C   0  0
    5.7625   -3.8419    0.0000 C   0  0
    6.2866   -2.9850    0.0000 C   0  0
    5.8011   -2.1009    0.0000 C   0  0
    4.8005   -2.0800    0.0000 C   0  0
    6.3238   -1.2382    0.0000 Cl  0  0
    7.8131   -2.1504    0.0000 N   0  0
    7.2941   -3.0066    0.0000 C   0  0
    7.9480   -3.7648    0.0000 N   0  0
    8.8712   -3.3772    0.0000 O   0  0
    8.7877   -2.3795    0.0000 C   0  0
    9.4884   -1.6695    0.0000 O   0  0
   -2.0382   -4.0183    0.0000 S   0  0
   -1.5809   -4.7050    0.0000 O   0  0
   -2.5023   -3.3363    0.0000 O   0  0
   -2.7249   -4.4756    0.0000 C   0  0
   -2.4384   -5.0665    0.0000 F   0  0
   -3.4705   -4.8478    0.0000 F   0  0
   -3.3138   -3.9413    0.0000 F   0  0
   -1.3222   -2.7790    0.0000 C   0  0
   -1.3234   -3.6064    0.0000 N   0  0
   -0.6086   -4.0192    0.0000 C   0  0
    0.1079   -3.6059    0.0000 C   0  0
    0.1050   -2.7754    0.0000 C   0  0
   -0.6104   -2.3662    0.0000 C   0  0
    0.8179   -2.3602    0.0000 C   0  0
    1.5725   -2.6903    0.0000 S   0  0
    2.1222   -2.0752    0.0000 C   0  0
    1.7070   -1.3622    0.0000 C   0  0
    0.9007   -1.5369    0.0000 N   0  0
    2.0396   -0.6072    0.0000 C   0  0
    2.9430   -2.1583    0.0000 C   0  0
  4  5  2  0
  5  6  1  0
  6  7  2  0
  7  2  1  0
  5 10  1  0
  6  8  1  0
  9 10  1  0
 10 11  2  0
 11 12  1  0
 12 13  1  0
 13  9  1  0
 13 14  2  0
  1  2  1  0
  2  3  2  0
  3  4  1  0
 15 18  1  0
 15 17  2  0
 18 19  1  0
 18 20  1  0
 15 16  2  0
 18 21  1  0
 32 28  2  0
 31 33  1  0
 26 27  1  0
 30 34  1  0
 34  1  1  0
 27 22  1  0
 22 23  1  0
 24 25  1  0
 25 26  1  0
 28 29  1  0
 23 24  1  0
 26 28  1  0
 29 30  1  0
 30 31  2  0
 31 32  1  0
 23 15  1  0
M  END
>  <ID_NEW>
CPDPP3409

>  <pEC50>
5.621502037781449

$$$$

  SciTegic12180812592D

 39 43  0  0  0  0            999 V2000
   -2.5361   -1.6844    0.0000 S   0  0
   -2.2730   -0.9821    0.0000 C   0  0
   -2.8619   -0.5141    0.0000 C   0  0
   -3.4855   -0.9329    0.0000 N   0  0
   -3.2849   -1.6522    0.0000 C   0  0
   -4.9551   -2.7208    0.0000 C   0  0
   -4.6806   -3.4192    0.0000 C   0  0
   -3.9382   -3.5285    0.0000 C   0  0
   -3.4743   -2.9395    0.0000 C   0  0
   -3.7487   -2.2412    0.0000 C   0  0
   -4.4911   -2.1319    0.0000 C   0  0
   -2.8298    0.2347    0.0000 C   0  0
   -1.5494   -0.7773    0.0000 C   0  0
   -1.0142   -1.3007    0.0000 O   0  0
   -5.1446   -4.0081    0.0000 C   0  0
   -4.6990   -4.6073    0.0000 F   0  0
   -5.7069   -4.5051    0.0000 F   0  0
   -5.6896   -3.4911    0.0000 F   0  0
   -0.2907   -1.1001    0.0000 C   0  0
    0.2445   -1.6235    0.0000 C   0  0
    0.9681   -1.4228    0.0000 C   0  0
    1.1521   -0.6945    0.0000 C   0  0
    0.6169   -0.1711    0.0000 C   0  0
   -0.1067   -0.3718    0.0000 C   0  0
    1.8757   -0.4939    0.0000 C   0  0
    1.5033   -1.9462    0.0000 C   0  0
    2.4647   -0.9578    0.0000 N   0  0
    3.0882   -0.5431    0.0000 O   0  0
    2.8834    0.1804    0.0000 C   0  0
    2.1346    0.2125    0.0000 N   0  0
    3.3514    0.7694    0.0000 O   0  0
   -4.0376    2.5371    0.0000 N   0  0
   -4.0697    1.7884    0.0000 C   0  0
   -3.4140    2.9518    0.0000 C   0  0
   -4.6266    3.0010    0.0000 C   0  0
   -3.4358    1.3859    0.0000 C   0  0
   -3.6147    3.6753    0.0000 C   0  0
   -4.3634    3.7074    0.0000 C   0  0
   -3.4637    0.6372    0.0000 N   0  0
  2  3  2  0
 19 20  2  0
  1  2  1  0
 20 21  1  0
  3  4  1  0
 21 22  2  0
  4  5  2  0
 22 23  1  0
  5  1  1  0
 23 24  2  0
 24 19  1  0
  6  7  2  0
 22 25  1  0
  7  8  1  0
 21 26  1  0
  8  9  2  0
 25 27  2  0
 27 28  1  0
 28 29  1  0
 29 30  1  0
 30 25  1  0
 29 31  2  0
  9 10  1  0
 10 11  2  0
 11  6  1  0
 10  5  1  0
  3 12  1  0
  2 13  1  0
 13 14  1  0
  7 15  1  0
 15 16  1  0
 15 17  1  0
 15 18  1  0
 14 19  1  0
 32 33  1  0
 32 34  1  0
 32 35  1  0
 33 36  1  0
 34 37  1  0
 35 38  1  0
 36 39  1  0
 37 38  1  0
 12 39  1  0
M  END
>  <ID_NEW>
CPDPP3410

>  <pEC50>
5.620471089715072

$$$$

  SciTegic12180813072D

 34 37  0  0  0  0            999 V2000
   -5.1010    0.7211    0.0000 C   0  0
   -4.6882    0.0021    0.0000 C   0  0
   -3.8594    1.4368    0.0000 C   0  0
   -4.6880    1.4350    0.0000 N   0  0
   -3.4486    0.7174    0.0000 C   0  0
   -3.8619    0.0028    0.0000 C   0  0
   -5.1047   -0.7240    0.0000 C   0  0
   -5.5246   -1.4463    0.0000 F   0  0
   -5.8327   -0.3055    0.0000 F   0  0
   -4.3815   -1.1388    0.0000 F   0  0
   -2.6234    0.7171    0.0000 Cl  0  0
   -3.4463    2.1463    0.0000 N   0  0
    1.5142    3.3954    0.0000 N   0  0
    2.2269    2.9782    0.0000 C   0  0
    2.3988    2.1635    0.0000 N   0  0
    3.2194    2.0749    0.0000 N   0  0
    3.5616    2.8209    0.0000 C   0  0
    2.9493    3.3844    0.0000 S   0  0
    4.3767    2.9858    0.0000 C   0  0
   -1.3543    2.5670    0.0000 C   0  0
   -1.3543    1.7421    0.0000 C   0  0
   -2.1378    2.8227    0.0000 C   0  0
   -0.6434    2.9823    0.0000 C   0  0
   -2.1414    1.4900    0.0000 C   0  0
   -0.6455    1.3303    0.0000 C   0  0
   -2.6218    2.1501    0.0000 C   0  0
    0.0717    2.5682    0.0000 C   0  0
    0.0743    1.7442    0.0000 C   0  0
    0.7953    2.9826    0.0000 S   0  0
    1.2068    2.2592    0.0000 O   0  0
    0.3830    3.7010    0.0000 O   0  0
    5.1907    3.1422    0.0000 F   0  0
    4.5374    2.1741    0.0000 F   0  0
    4.2203    3.7988    0.0000 F   0  0
  1  2  2  0
  2  6  1  0
  5  3  1  0
  3  4  2  0
 29 13  1  0
 29 30  2  0
 29 31  2  0
 27 29  1  0
 13 14  1  0
 14 15  2  0
 15 16  1  0
 16 17  2  0
 17 18  1  0
 18 14  1  0
 17 19  1  0
 20 21  2  0
 20 22  1  0
 20 23  1  0
 21 24  1  0
 21 25  1  0
 22 26  1  0
 23 27  2  0
 25 28  2  0
 26 12  1  0
 24 26  1  0
 27 28  1  0
 19 32  1  0
 19 33  1  0
 19 34  1  0
  4  1  1  0
  5  6  2  0
  3 12  1  0
  2  7  1  0
  7  8  1  0
  7  9  1  0
  7 10  1  0
  5 11  1  0
M  END
>  <ID_NEW>
CPDPP3411

>  <pEC50>
5.617624902527233

$$$$

  SciTegic12180813062D

 31 34  0  0  0  0            999 V2000
   13.8147   -3.4014    0.0000 C   0  0
   12.9647   -2.1655    0.0000 C   0  0
   15.3142   -3.4402    0.0000 C   0  0
   12.9019   -4.5917    0.0000 S   0  0
   11.5266   -2.5919    0.0000 N   0  0
   13.4650   -0.7514    0.0000 C   0  0
   16.0303   -4.7583    0.0000 O   0  0
   11.4878   -4.0914    0.0000 C   0  0
   17.5298   -4.7971    0.0000 C   0  0
   18.2460   -6.1151    0.0000 C   0  0
   19.7454   -6.1539    0.0000 C   0  0
   20.5288   -4.8747    0.0000 C   0  0
   19.8127   -3.5567    0.0000 C   0  0
   18.3132   -3.5179    0.0000 C   0  0
   22.0283   -4.9136    0.0000 C   0  0
   20.5961   -2.2775    0.0000 Cl  0  0
   22.8783   -6.1495    0.0000 N   0  0
   24.3164   -5.7231    0.0000 C   0  0
   24.3552   -4.2236    0.0000 O   0  0
   22.9411   -3.7233    0.0000 N   0  0
   25.5067   -6.6359    0.0000 O   0  0
    9.1340   -7.2867    0.0000 C   0  0
   10.3700   -6.4367    0.0000 C   0  0
    7.7800   -6.6413    0.0000 C   0  0
    9.2522   -8.7820    0.0000 C   0  0
   10.2519   -4.9414    0.0000 C   0  0
    7.6619   -5.1460    0.0000 C   0  0
    7.8383   -9.2831    0.0000 F   0  0
   10.7315   -8.5340    0.0000 F   0  0
    9.6281  -10.2341    0.0000 F   0  0
    8.8978   -4.2960    0.0000 C   0  0
 10 11  1  0
 11 12  2  0
 12 13  1  0
 13 14  2  0
 14  9  1  0
 12 15  1  0
 13 16  1  0
 15 17  2  0
 17 18  1  0
 18 19  1  0
 19 20  1  0
 20 15  1  0
 18 21  2  0
  1  2  2  0
  1  3  1  0
  1  4  1  0
  2  5  1  0
  2  6  1  0
  3  7  1  0
  4  8  1  0
  5  8  2  0
  7  9  1  0
  9 10  2  0
 22 23  2  0
 22 24  1  0
 22 25  1  0
 23 26  1  0
 24 27  2  0
 25 28  1  0
 25 29  1  0
 25 30  1  0
 26 31  2  0
 27 31  1  0
  8 26  1  0
M  END
>  <ID_NEW>
CPDPP3412

>  <pEC50>
5.596853385899742

$$$$

  SciTegic12180813012D

 39 43  0  0  0  0            999 V2000
   -0.7463   -2.4011    0.0000 C   0  0
   -0.2851   -1.7835    0.0000 C   0  0
   -0.5877   -1.0800    0.0000 C   0  0
   -1.5055   -2.3162    0.0000 C   0  0
   -1.8107   -1.6111    0.0000 C   0  0
   -1.3528   -0.9939    0.0000 C   0  0
   -1.7967   -0.3623    0.0000 S   0  0
   -2.5356   -0.5942    0.0000 C   0  0
   -2.5441   -1.3668    0.0000 N   0  0
    0.4759   -1.8709    0.0000 C   0  0
    0.7819   -2.5784    0.0000 F   0  0
    0.9351   -1.2549    0.0000 F   0  0
    0.1922   -2.5877    0.0000 F   0  0
   -3.1522   -0.1357    0.0000 N   0  0
   -2.4948    1.7863    0.0000 C   0  0
   -2.4928    1.0154    0.0000 C   0  0
   -1.8302    0.6303    0.0000 C   0  0
   -1.1655    1.0202    0.0000 C   0  0
   -1.1676    1.7869    0.0000 C   0  0
   -1.8343    2.1678    0.0000 C   0  0
   -0.5070    2.1684    0.0000 C   0  0
   -3.1575    0.6297    0.0000 C   0  0
   -1.8364    2.9345    0.0000 C   0  0
   -2.5816    3.1315    0.0000 F   0  0
   -1.7029    3.6944    0.0000 F   0  0
   -1.0668    2.8673    0.0000 F   0  0
   -4.4827   -1.6747    0.0000 N   0  0
   -5.1452   -1.2891    0.0000 C   0  0
   -4.4806   -2.4414    0.0000 C   0  0
   -3.8180   -1.2854    0.0000 C   0  0
   -5.8099   -1.6742    0.0000 C   0  0
   -5.1453   -2.8224    0.0000 C   0  0
   -3.8201   -0.5187    0.0000 C   0  0
   -5.8121   -2.4409    0.0000 O   0  0
    0.1964    1.8580    0.0000 N   0  0
    0.7100    2.4298    0.0000 O   0  0
    0.3242    3.0946    0.0000 C   0  0
   -0.4240    2.9356    0.0000 N   0  0
    0.6376    3.7984    0.0000 O   0  0
 27 28  1  0
 27 29  1  0
 27 30  1  0
 28 31  1  0
 29 32  1  0
 30 33  1  0
 31 34  1  0
 33 14  1  0
 32 34  1  0
 22 14  1  0
 16 22  1  0
 20 23  1  0
 23 24  1  0
 23 25  1  0
  1  2  2  0
 10 12  1  0
 10 13  1  0
  2  3  1  0
  3  6  2  0
  6  7  1  0
  7  8  1  0
  8  9  2  0
  9  5  1  0
  5  4  2  0
  4  1  1  0
  2 10  1  0
  5  6  1  0
 10 11  1  0
  8 14  1  0
 23 26  1  0
 15 16  2  0
 16 17  1  0
 17 18  2  0
 18 19  1  0
 19 20  2  0
 20 15  1  0
 19 21  1  0
 21 35  2  0
 35 36  1  0
 36 37  1  0
 37 38  1  0
 38 21  1  0
 37 39  2  0
M  END
>  <ID_NEW>
CPDPP3413

>  <pEC50>
5.594688887617174

$$$$

  SciTegic12180813002D

 39 41  0  0  0  0            999 V2000
    0.6277   -1.7417    0.0000 C   0  0
    0.6266   -2.5690    0.0000 C   0  0
    1.3414   -2.9819    0.0000 C   0  0
    2.0578   -2.5686    0.0000 C   0  0
    2.0550   -1.7380    0.0000 C   0  0
    1.3396   -1.3289    0.0000 C   0  0
   -0.0868   -1.3293    0.0000 C   0  0
   -0.0870   -0.5043    0.0000 F   0  0
   -0.8012   -1.7420    0.0000 F   0  0
    0.4964   -0.7458    0.0000 F   0  0
    1.3412   -3.8069    0.0000 O   0  0
    2.7730   -2.9799    0.0000 C   0  0
    2.7742   -3.8049    0.0000 O   0  0
    0.6266   -4.2192    0.0000 C   0  0
    0.6264   -5.0442    0.0000 C   0  0
    1.3408   -5.4569    0.0000 F   0  0
   -0.0882   -5.4566    0.0000 F   0  0
    1.2099   -4.4610    0.0000 F   0  0
    3.7583   -2.4458    0.0000 N   0  0
    4.4708   -2.0292    0.0000 C   0  0
    5.0541   -2.6125    0.0000 C   0  0
    5.6458   -2.0250    0.0000 C   0  0
    6.4383   -2.2394    0.0000 C   0  0
    7.0213   -1.6527    0.0000 C   0  0
    6.8044   -0.8528    0.0000 C   0  0
    5.9991   -0.6428    0.0000 C   0  0
    5.4195   -1.2311    0.0000 C   0  0
    7.3958   -0.2625    0.0000 S   0  0
    7.1708    0.5375    0.0000 O   0  0
    7.7958   -0.9750    0.0000 O   0  0
    8.1083    0.1542    0.0000 N   0  0
    8.8208   -0.2583    0.0000 C   0  0
    9.5333    0.1583    0.0000 S   0  0
   10.2458   -0.2542    0.0000 C   0  0
    9.0333   -1.0542    0.0000 N   0  0
   10.0208   -1.0500    0.0000 N   0  0
   11.0708   -0.2542    0.0000 C   0  0
   11.7833    0.1625    0.0000 C   0  0
   11.6458   -0.8375    0.0000 C   0  0
  6  1  1  0
 12 13  2  0
  1  2  2  0
 11 14  1  0
  1  7  1  0
 14 15  1  0
  3  4  2  0
  7  8  1  0
  7  9  1  0
 15 16  1  0
  4  5  1  0
 15 17  1  0
  7 10  1  0
 15 18  1  0
  2  3  1  0
  3 11  1  0
  5  6  2  0
  4 12  1  0
 34 37  1  0
 37 38  1  0
 37 39  1  0
 19 20  1  0
 20 21  1  0
 21 22  1  0
 22 23  2  0
 23 24  1  0
 24 25  2  0
 25 26  1  0
 26 27  2  0
 27 22  1  0
 25 28  1  0
 28 29  2  0
 28 30  2  0
 28 31  1  0
 31 32  1  0
 32 33  1  0
 33 34  1  0
 32 35  2  0
 34 36  2  0
 35 36  1  0
 12 19  1  0
M  END
>  <ID_NEW>
CPDPP3414

>  <pEC50>
5.592361067640348

$$$$

  SciTegic12180813012D

 31 33  0  0  0  0            999 V2000
   -2.9894    0.4716    0.0000 C   0  0
   -3.0623    1.2957    0.0000 C   0  0
   -3.8112    1.6429    0.0000 C   0  0
   -4.4878    1.1671    0.0000 C   0  0
   -4.4105    0.3402    0.0000 C   0  0
   -3.6614   -0.0033    0.0000 C   0  0
   -5.0834   -0.1372    0.0000 O   0  0
   -5.8333    0.2068    0.0000 C   0  0
   -2.3873    1.7700    0.0000 C   0  0
   -2.4605    2.5918    0.0000 O   0  0
   -1.6390    1.4226    0.0000 N   0  0
    0.5069    2.6625    0.0000 C   0  0
    0.5057    1.8352    0.0000 C   0  0
    1.2206    1.4223    0.0000 C   0  0
    1.9370    1.8356    0.0000 C   0  0
    1.9341    2.6662    0.0000 C   0  0
    1.2188    3.0753    0.0000 C   0  0
   -0.2091    1.4232    0.0000 C   0  0
    2.6471    3.0814    0.0000 S   0  0
   -0.9232    1.8363    0.0000 C   0  0
    2.2292    3.8000    0.0000 O   0  0
    3.0542    2.3708    0.0000 O   0  0
    3.3661    3.4858    0.0000 N   0  0
    4.0759    3.0653    0.0000 C   0  0
    4.1497    2.2447    0.0000 N   0  0
    4.9547    2.0641    0.0000 N   0  0
    5.3752    2.7740    0.0000 C   0  0
    4.8300    3.3931    0.0000 S   0  0
    6.1966    2.8511    0.0000 C   0  0
    6.6741    2.1783    0.0000 C   0  0
    6.5405    3.6010    0.0000 C   0  0
  1  2  2  0
  2  3  1  0
  3  4  2  0
  4  5  1  0
  5  6  2  0
  6  1  1  0
  5  7  1  0
  7  8  1  0
  2  9  1  0
  9 10  2  0
  9 11  1  0
 12 13  2  0
 13 14  1  0
 14 15  2  0
 15 16  1  0
 16 17  2  0
 17 12  1  0
 13 18  1  0
 16 19  1  0
 18 20  1  0
 20 11  1  0
 19 21  2  0
 19 22  2  0
 19 23  1  0
 23 24  1  0
 24 25  2  0
 25 26  1  0
 26 27  2  0
 27 28  1  0
 28 24  1  0
 27 29  1  0
 29 30  1  0
 29 31  1  0
M  END
>  <ID_NEW>
CPDPP3415

>  <pEC50>
5.588409954254847

$$$$

  SciTegic12180812342D

 37 40  0  0  0  0            999 V2000
    4.5331   -2.7971    0.0000 N   0  0
    5.3581   -2.7971    0.0000 N   0  0
    5.6149   -2.0129    0.0000 C   0  0
    4.9456   -1.5262    0.0000 S   0  0
    4.2806   -2.0129    0.0000 C   0  0
    3.4958   -1.7583    0.0000 N   0  0
    6.3999   -1.7591    0.0000 C   0  0
    7.0122   -2.3120    0.0000 C   0  0
    6.5725   -0.9523    0.0000 C   0  0
    0.0203    2.3899    0.0000 C   0  0
    0.4669    1.6962    0.0000 C   0  0
    1.2950    1.7361    0.0000 O   0  0
   -0.8082    2.3540    0.0000 C   0  0
   -3.5657    2.3301    0.0000 C   0  0
   -4.3226    1.9866    0.0000 C   0  0
   -4.4003    1.1607    0.0000 C   0  0
   -3.7219    0.6773    0.0000 C   0  0
   -2.9638    1.0258    0.0000 C   0  0
   -2.8898    1.8508    0.0000 C   0  0
   -2.1408    2.1966    0.0000 C   0  0
   -5.1545    0.8173    0.0000 C   0  0
   -5.8312    1.2994    0.0000 F   0  0
   -5.2322   -0.0082    0.0000 F   0  0
   -5.2921    1.6349    0.0000 F   0  0
   -1.4179    1.7937    0.0000 N   0  0
   -1.1582    3.1072    0.0000 C   0  0
   -1.9815    3.0096    0.0000 O   0  0
   -0.7555    3.8314    0.0000 C   0  0
    1.7458    1.0382    0.0000 C   0  0
    1.3670    0.3038    0.0000 C   0  0
    1.8128   -0.3935    0.0000 C   0  0
    2.6420   -0.3540    0.0000 C   0  0
    3.0231    0.3886    0.0000 C   0  0
    2.5709    1.0830    0.0000 C   0  0
    3.0887   -1.0476    0.0000 S   0  0
    3.8000   -0.6292    0.0000 O   0  0
    2.3708   -1.4542    0.0000 O   0  0
  5  6  1  0
  3  7  1  0
  7  8  1  0
  7  9  1  0
  1  2  1  0
 34 29  1  0
 14 15  2  0
 15 16  1  0
 16 17  2  0
 17 18  1  0
 18 19  2  0
 19 14  1  0
 19 20  1  0
 16 21  1  0
 21 22  1  0
 21 23  1  0
 21 24  1  0
 20 25  2  0
 25 13  1  0
 13 26  2  0
 26 27  1  0
 27 20  1  0
 26 28  1  0
 13 10  1  0
 10 11  1  0
 11 12  1  0
 12 29  1  0
 29 30  2  0
 30 31  1  0
 31 32  2  0
 32 33  1  0
 33 34  2  0
 32 35  1  0
 35 36  2  0
 35 37  2  0
 35  6  1  0
  2  3  2  0
  3  4  1  0
  4  5  1  0
  5  1  2  0
M  END
>  <ID_NEW>
CPDPP3416

>  <pEC50>
5.576596952828205

$$$$

  SciTegic12180812592D

 32 34  0  0  0  0            999 V2000
  -10.9915  -12.9025    0.0000 C   0  0
  -10.9781  -14.4024    0.0000 C   0  0
   -9.6724  -15.1408    0.0000 C   0  0
   -8.3801  -14.3792    0.0000 C   0  0
   -8.3935  -12.8793    0.0000 C   0  0
   -9.6992  -12.1409    0.0000 C   0  0
  -12.2972  -12.1641    0.0000 Cl  0  0
   -7.1012  -12.1177    0.0000 C   0  0
   -5.7955  -12.8561    0.0000 N   0  0
   -7.1146  -10.6178    0.0000 O   0  0
   -4.5033  -12.0945    0.0000 C   0  0
   -3.1976  -12.8329    0.0000 C   0  0
   -1.9053  -12.0713    0.0000 C   0  0
   -0.5996  -12.8097    0.0000 C   0  0
    0.6927  -12.0481    0.0000 C   0  0
    0.6793  -10.5482    0.0000 C   0  0
   -0.6264   -9.8098    0.0000 C   0  0
   -1.9187  -10.5714    0.0000 C   0  0
    1.9716   -9.7866    0.0000 S   0  0
    3.3765   -9.2610    0.0000 O   0  0
    2.6176  -11.1403    0.0000 O   0  0
   -7.0744  -15.1176    0.0000 Cl  0  0
    3.9255   -3.6153    0.0000 C   0  0
    3.7041   -5.0989    0.0000 C   0  0
    5.4158   -3.4452    0.0000 C   0  0
    2.4283   -3.5240    0.0000 C   0  0
    3.8859   -2.1158    0.0000 C   0  0
    2.3737   -5.7918    0.0000 S   0  0
    4.7742   -6.1500    0.0000 N   0  0
    2.6216   -7.2711    0.0000 C   0  0
    4.1051   -7.4926    0.0000 N   0  0
    1.5704   -8.3412    0.0000 N   0  0
  9 11  1  0
  6  1  1  0
 11 12  1  0
  1  2  2  0
 12 13  1  0
  1  7  1  0
 13 14  2  0
  3  4  2  0
 14 15  1  0
 15 16  2  0
 16 17  1  0
  5  8  1  0
 17 18  2  0
 18 13  1  0
  4  5  1  0
 16 19  1  0
  8  9  1  0
 19 20  2  0
  2  3  1  0
 19 21  2  0
  8 10  2  0
  5  6  2  0
  4 22  1  0
 23 24  1  0
 23 25  1  0
 23 26  1  0
 23 27  1  0
 24 28  1  0
 24 29  2  0
 28 30  1  0
 29 31  1  0
 30 32  1  0
 30 31  2  0
 19 32  1  0
M  END
>  <ID_NEW>
CPDPP3417

>  <pEC50>
5.564188955176604

$$$$

  SciTegic12180813082D

 39 42  0  0  0  0            999 V2000
   -3.1125    1.0819    0.0000 C   0  0
   -3.6608    0.7660    0.0000 C   0  0
   -3.1157    1.7111    0.0000 O   0  0
   -4.1998    1.0779    0.0000 C   0  0
   -4.7393    0.7627    0.0000 C   0  0
   -4.7408    0.1410    0.0000 C   0  0
   -4.1968   -0.1722    0.0000 C   0  0
   -3.6602    0.1412    0.0000 C   0  0
   -3.1149   -0.1850    0.0000 O   0  0
   -3.1240   -0.8183    0.0000 C   0  0
   -2.5869   -1.1320    0.0000 C   0  0
   -5.2844   -0.1800    0.0000 C   0  0
   -5.8319   -0.5017    0.0000 F   0  0
   -5.6045    0.3634    0.0000 F   0  0
   -4.9652   -0.7274    0.0000 F   0  0
    3.6662    1.3363    0.0000 C   0  0
    3.6543    2.1672    0.0000 S   0  0
    4.4533    1.0990    0.0000 N   0  0
    4.9226    1.7777    0.0000 N   0  0
    4.4212    2.4320    0.0000 C   0  0
    4.6618    3.2306    0.0000 C   0  0
    4.0917    3.8332    0.0000 C   0  0
    5.4622    3.4140    0.0000 C   0  0
    3.0609    0.7761    0.0000 N   0  0
    2.2608    1.0233    0.0000 S   0  0
    2.5076    1.8157    0.0000 O   0  0
    2.0168    0.2314    0.0000 O   0  0
    1.4667    1.2699    0.0000 C   0  0
    1.2877    2.0734    0.0000 C   0  0
    0.4958    2.3190    0.0000 C   0  0
    0.8584    0.7104    0.0000 C   0  0
    0.0749    0.9541    0.0000 C   0  0
   -0.1093    1.7618    0.0000 C   0  0
   -0.8432    2.1186    0.0000 C   0  0
   -0.4410    0.3143    0.0000 C   0  0
   -1.2627    0.3188    0.0000 C   0  0
   -1.5884    1.7672    0.0000 C   0  0
   -1.7729    0.9601    0.0000 C   0  0
   -2.5765    0.7732    0.0000 N   0  0
 39  1  1  0
  1  2  1  0
 21 22  1  0
 21 23  1  0
 24 16  1  0
 16 17  1  0
 17 20  1  0
 19 18  1  0
 29 30  1  0
 30 33  2  0
 32 31  2  0
 31 28  1  0
 32 33  1  0
 32 35  1  0
 33 34  1  0
 34 37  1  0
 36 35  1  0
 38 37  1  0
 36 38  1  0
 38 39  1  0
 25 26  2  0
 25 27  2  0
 25 28  1  0
 24 25  1  0
 28 29  2  0
 18 16  2  0
 19 20  2  0
 20 21  1  0
  1  3  2  0
  2  4  2  0
  4  5  1  0
  5  6  2  0
  6  7  1  0
  7  8  2  0
  8  2  1  0
  8  9  1  0
  9 10  1  0
 10 11  1  0
  6 12  1  0
 12 13  1  0
 12 14  1  0
 12 15  1  0
M  END
>  <ID_NEW>
CPDPP3418

>  <pEC50>
5.547332711472073

$$$$

  SciTegic12180813062D

 34 36  0  0  0  0            999 V2000
   -2.8166    3.7892    0.0000 N   0  0
   -1.3793    3.7899    0.0000 C   0  0
   -0.6617    3.3716    0.0000 C   0  0
   -0.6589    2.5491    0.0000 C   0  0
    0.0537    2.1349    0.0000 C   0  0
    0.7702    2.5498    0.0000 C   0  0
    0.7696    3.3750    0.0000 C   0  0
    0.0522    3.7854    0.0000 C   0  0
    1.4916    2.1290    0.0000 S   0  0
    1.0697    1.4082    0.0000 N   0  0
    2.2106    1.7074    0.0000 O   0  0
    1.9111    2.8467    0.0000 O   0  0
    1.4796    0.6865    0.0000 C   0  0
    1.2285   -0.0960    0.0000 S   0  0
    1.8978   -0.5809    0.0000 C   0  0
    2.5612   -0.1001    0.0000 N   0  0
    2.3055    0.6802    0.0000 N   0  0
    1.9033   -1.4058    0.0000 C   0  0
    1.1885   -1.8185    0.0000 C   0  0
    2.6195   -1.8179    0.0000 C   0  0
   -2.0990    3.3791    0.0000 C   0  0
   -4.2529    2.1421    0.0000 C   0  0
   -3.5343    2.5622    0.0000 C   0  0
   -4.2465    1.3253    0.0000 C   0  0
   -4.9696    2.5337    0.0000 C   0  0
   -2.8230    2.1569    0.0000 C   0  0
   -3.5331    3.3788    0.0000 C   0  0
   -3.5173    0.9050    0.0000 C   0  0
   -5.4492    1.8876    0.0000 F   0  0
   -4.9573    3.3796    0.0000 F   0  0
   -5.8306    2.5802    0.0000 F   0  0
   -2.8200    1.3210    0.0000 C   0  0
   -4.2493    3.7989    0.0000 O   0  0
   -3.4855    0.0865    0.0000 Cl  0  0
 27  1  1  0
  5  6  2  0
  6  7  1  0
  7  8  2  0
  8  3  1  0
  9 10  1  0
  9 11  2  0
  6  9  1  0
  9 12  2  0
 10 13  1  0
 13 14  1  0
 14 15  1  0
 15 16  2  0
 16 17  1  0
 17 13  2  0
 15 18  1  0
 18 19  1  0
 18 20  1  0
  2  3  1  0
  3  4  2  0
  4  5  1  0
  2 21  1  0
 21  1  1  0
 22 23  2  0
 22 24  1  0
 22 25  1  0
 23 26  1  0
 23 27  1  0
 24 28  2  0
 25 29  1  0
 25 30  1  0
 25 31  1  0
 26 32  2  0
 27 33  2  0
 28 34  1  0
 28 32  1  0
M  END
>  <ID_NEW>
CPDPP3419

>  <pEC50>
5.542573853425865

$$$$

  SciTegic12180813002D

 38 42  0  0  0  0            999 V2000
    8.7669   -3.1429    0.0000 C   0  0
    3.7699   -4.6165    0.0000 C   0  0
    3.3291   -5.0303    0.0000 C   0  0
    4.3732   -4.7070    0.0000 S   0  0
    3.6759   -4.0294    0.0000 N   0  0
    2.7626   -4.8541    0.0000 C   0  0
    3.4829   -5.6056    0.0000 C   0  0
    4.6500   -4.1665    0.0000 C   0  0
    4.1901   -3.7397    0.0000 C   0  0
    2.3315   -5.2599    0.0000 C   0  0
    3.0313   -6.0196    0.0000 C   0  0
    5.2353   -4.0663    0.0000 C   0  0
    4.2559   -3.1366    0.0000 C   0  0
    2.4736   -5.8493    0.0000 C   0  0
    5.4463   -3.5095    0.0000 O   0  0
    2.0337   -6.2499    0.0000 C   0  0
    1.6312   -6.6701    0.0000 F   0  0
    1.6232   -5.8306    0.0000 F   0  0
    2.4593   -6.6662    0.0000 F   0  0
    3.7704   -2.7798    0.0000 N   0  0
    6.0419   -3.4041    0.0000 C   0  0
    6.2471   -2.8358    0.0000 C   0  0
    6.8460   -2.7337    0.0000 C   0  0
    7.2322   -3.1979    0.0000 C   0  0
    7.0198   -3.7668    0.0000 C   0  0
    6.4237   -3.8706    0.0000 C   0  0
    7.8324   -3.0976    0.0000 C   0  0
    8.0434   -2.5302    0.0000 N   0  0
    8.2835   -3.4693    0.0000 N   0  0
    8.7210   -2.5520    0.0000 O   0  0
    9.3542   -3.3001    0.0000 O   0  0
    7.4098   -4.2413    0.0000 F   0  0
    3.2197   -3.0235    0.0000 C   0  0
    2.7290   -2.6655    0.0000 C   0  0
    2.7968   -2.0628    0.0000 N   0  0
    3.3498   -1.8226    0.0000 C   0  0
    3.8413   -2.1775    0.0000 C   0  0
    3.4166   -1.2166    0.0000 O   0  0
  2  3  1  0
  2  4  1  0
  2  5  2  0
  3  6  1  0
  3  7  2  0
  4  8  1  0
  5  9  1  0
  6 10  2  0
  7 11  1  0
  8 12  1  0
  9 13  1  0
 10 14  1  0
 12 15  1  0
 14 16  1  0
 16 17  1  0
 16 18  1  0
 16 19  1  0
  8  9  2  0
 11 14  2  0
 13 20  1  0
 15 21  1  0
 21 22  2  0
 22 23  1  0
 23 24  2  0
 24 25  1  0
 25 26  2  0
 26 21  1  0
 24 27  1  0
 27 28  2  0
 27 29  1  0
 28 30  1  0
  1 30  1  0
  1 31  2  0
  1 29  1  0
 25 32  1  0
 20 33  1  0
 20 37  1  0
 33 34  1  0
 34 35  1  0
 35 36  1  0
 36 37  1  0
 36 38  2  0
M  END
>  <ID_NEW>
CPDPP3420

>  <pEC50>
5.536255651713228

$$$$

  SciTegic12180812542D

 37 40  0  0  0  0            999 V2000
    5.2544   -9.5999    0.0000 C   0  0
    4.5566   -9.1553    0.0000 C   0  0
    4.5937   -8.3307    0.0000 C   0  0
    5.3277   -7.9496    0.0000 C   0  0
    6.0260   -8.3991    0.0000 C   0  0
    5.9856   -9.2223    0.0000 C   0  0
    3.8246   -9.5358    0.0000 C   0  0
    3.7881  -10.3600    0.0000 F   0  0
    3.1291   -9.0921    0.0000 F   0  0
    3.0942   -9.9236    0.0000 F   0  0
    6.7598   -8.0220    0.0000 C   0  0
    6.8834   -7.2077    0.0000 S   0  0
    7.6977   -7.0758    0.0000 C   0  0
    8.0749   -7.8096    0.0000 C   0  0
    7.4935   -8.3949    0.0000 N   0  0
    8.8902   -7.9359    0.0000 C   0  0
    9.4072   -7.2929    0.0000 C   0  0
   10.2224   -7.4191    0.0000 C   0  0
   10.7394   -6.7762    0.0000 C   0  0
    8.0697   -6.3394    0.0000 C   0  0
    5.5862   -4.4792    0.0000 C   0  0
    5.5850   -5.3065    0.0000 C   0  0
    6.2998   -5.7194    0.0000 C   0  0
    6.2980   -4.0664    0.0000 C   0  0
    7.0134   -4.4755    0.0000 C   0  0
    7.0183   -5.3066    0.0000 C   0  0
    7.8102   -5.5588    0.0000 N   0  0
    8.2947   -4.8835    0.0000 C   0  0
    7.8023   -4.2142    0.0000 C   0  0
    4.8716   -4.0668    0.0000 O   0  0
    8.0526   -3.4281    0.0000 C   0  0
    8.8585   -3.2518    0.0000 C   0  0
    9.1089   -2.4657    0.0000 N   0  0
    4.1572   -4.4794    0.0000 C   0  0
    3.4426   -4.0670    0.0000 C   0  0
    2.7282   -4.4797    0.0000 O   0  0
    3.4425   -3.2420    0.0000 O   0  0
 12 13  1  0
 13 14  2  0
 14 15  1  0
 15 11  2  0
  3  4  2  0
 14 16  1  0
  7  8  1  0
 16 17  1  0
 17 18  1  0
  7  9  1  0
 18 19  1  0
  4  5  1  0
 13 20  1  0
  7 10  1  0
 23 26  2  0
 21 22  2  0
 25 24  2  0
 26 27  1  0
 27 28  1  0
 28 29  2  0
 29 25  1  0
 24 21  1  0
 21 30  1  0
 25 26  1  0
 29 31  1  0
 22 23  1  0
 31 32  1  0
 32 33  3  0
 27 20  1  0
 30 34  1  0
  2  3  1  0
 34 35  1  0
  5 11  1  0
 35 36  1  0
 11 12  1  0
 35 37  2  0
  5  6  2  0
  6  1  1  0
  1  2  2  0
  2  7  1  0
M  END
>  <ID_NEW>
CPDPP3421

>  <pEC50>
5.523601302485833

$$$$

  SciTegic12180812562D

 39 42  0  0  0  0            999 V2000
    9.2958   -1.3124    0.0000 N   0  0
    5.5209   -2.7833    0.0000 O   0  0
    6.2416   -2.3666    0.0000 C   0  0
    7.6786   -2.3623    0.0000 C   0  0
    7.6745   -1.5319    0.0000 C   0  0
    6.9482   -1.1233    0.0000 C   0  0
    6.2350   -1.5417    0.0000 C   0  0
    8.4708   -1.3124    0.0000 S   0  0
    8.4666   -0.4874    0.0000 O   0  0
    8.4666   -2.1374    0.0000 O   0  0
    9.9292   -1.8502    0.0000 C   0  0
    9.8673   -2.6770    0.0000 N   0  0
   10.6348   -2.9901    0.0000 N   0  0
   11.1726   -2.3608    0.0000 C   0  0
   10.7348   -1.6548    0.0000 S   0  0
   11.9901   -2.4989    0.0000 C   0  0
   12.5247   -1.8629    0.0000 C   0  0
   12.4596   -3.1757    0.0000 C   0  0
    6.9625   -2.7791    0.0000 C   0  0
    0.6611   -5.3207    0.0000 C   0  0
    0.6599   -6.1481    0.0000 C   0  0
    1.3747   -6.5610    0.0000 C   0  0
    2.0912   -6.1476    0.0000 C   0  0
    2.0883   -5.3171    0.0000 C   0  0
    1.3729   -4.9080    0.0000 C   0  0
   -0.0549   -6.5600    0.0000 C   0  0
   -0.7690   -6.1470    0.0000 F   0  0
   -0.0555   -7.3850    0.0000 F   0  0
   -0.2678   -5.7630    0.0000 F   0  0
    2.8012   -4.9019    0.0000 C   0  0
    3.5539   -5.2363    0.0000 N   0  0
    4.1036   -4.6211    0.0000 C   0  0
    3.6884   -3.9081    0.0000 C   0  0
    2.8821   -4.0828    0.0000 S   0  0
    4.0211   -3.1532    0.0000 C   0  0
    4.8125   -5.0333    0.0000 C   0  0
    4.8100   -5.8583    0.0000 C   0  0
    5.5232   -6.2730    0.0000 C   0  0
    5.5206   -7.0980    0.0000 C   0  0
  5  8  1  0
  8  9  2  0
  2  3  1  0
  8 10  2  0
  8  1  1  0
  1 11  1  0
 11 12  2  0
 19  4  1  0
  4  5  2  0
  3 19  2  0
 12 13  1  0
 13 14  2  0
 14 15  1  0
 15 11  1  0
 14 16  1  0
  5  6  1  0
 16 17  1  0
 16 18  1  0
  6  7  2  0
  7  3  1  0
 26 28  1  0
 23 24  1  0
 26 29  1  0
 21 22  1  0
 24 30  1  0
 30 31  2  0
 24 25  2  0
 25 20  1  0
 20 21  2  0
 21 26  1  0
 32 36  1  0
 31 32  1  0
 32 33  2  0
 33 34  1  0
 34 30  1  0
 22 23  2  0
 36 37  1  0
 33 35  1  0
 37 38  1  0
 26 27  1  0
 38 39  1  0
  2 35  1  0
M  END
>  <ID_NEW>
CPDPP3422

>  <pEC50>
5.516337575421658

$$$$

  SciTegic12180812472D

 38 41  0  0  0  0            999 V2000
    3.7583   -3.3459    0.0000 N   0  0
    4.5833   -3.3459    0.0000 N   0  0
    4.8401   -2.5617    0.0000 C   0  0
    4.1708   -2.0750    0.0000 S   0  0
    3.5058   -2.5617    0.0000 C   0  0
    2.7210   -2.3071    0.0000 N   0  0
    5.6251   -2.3079    0.0000 C   0  0
    6.2374   -2.8608    0.0000 F   0  0
    5.7977   -1.5012    0.0000 F   0  0
    5.6671   -3.1318    0.0000 F   0  0
   -4.4014    1.6667    0.0000 C   0  0
   -4.4026    0.8393    0.0000 C   0  0
   -3.6878    0.4265    0.0000 C   0  0
   -2.9713    0.8398    0.0000 C   0  0
   -2.9742    1.6703    0.0000 C   0  0
   -3.6896    2.0795    0.0000 C   0  0
   -5.1174    0.4274    0.0000 C   0  0
   -5.8315    0.8405    0.0000 F   0  0
   -5.1180   -0.3976    0.0000 F   0  0
   -5.3303    1.2245    0.0000 F   0  0
   -2.2613    2.0855    0.0000 C   0  0
   -1.5044    1.7493    0.0000 N   0  0
   -0.9547    2.3645    0.0000 C   0  0
   -1.3699    3.0775    0.0000 C   0  0
   -2.1762    2.9028    0.0000 S   0  0
   -1.0372    3.8324    0.0000 C   0  0
   -0.1339    2.2813    0.0000 C   0  0
    0.2045    1.5289    0.0000 C   0  0
    1.0253    1.4458    0.0000 O   0  0
    1.3637    0.6934    0.0000 C   0  0
    0.8789    0.0276    0.0000 C   0  0
    1.2166   -0.7243    0.0000 C   0  0
    2.0383   -0.8080    0.0000 C   0  0
    2.5210   -0.1337    0.0000 C   0  0
    2.1806    0.6155    0.0000 C   0  0
    2.3777   -1.5599    0.0000 S   0  0
    1.5750   -1.7708    0.0000 O   0  0
    3.1708   -1.3417    0.0000 O   0  0
  1  2  1  0
  2  3  2  0
  3  4  1  0
  4  5  1  0
  5  1  2  0
  5  6  1  0
  3  7  1  0
  7  8  1  0
  7  9  1  0
  7 10  1  0
 11 12  2  0
 12 13  1  0
 13 14  2  0
 14 15  1  0
 15 16  2  0
 16 11  1  0
 12 17  1  0
 17 18  1  0
 17 19  1  0
 17 20  1  0
 15 21  1  0
 21 22  2  0
 22 23  1  0
 23 24  2  0
 24 25  1  0
 25 21  1  0
 24 26  1  0
 23 27  1  0
 27 28  1  0
 28 29  1  0
 29 30  1  0
 30 31  2  0
 31 32  1  0
 32 33  2  0
 33 34  1  0
 34 35  2  0
 35 30  1  0
 33 36  1  0
 36 37  2  0
 36 38  2  0
 36  6  1  0
M  END
>  <ID_NEW>
CPDPP3423

>  <pEC50>
5.5147966031100655

$$$$

  SciTegic12180812592D

 33 36  0  0  0  0            999 V2000
    3.3871   -4.0177    0.0000 C   0  0
    2.9112   -4.4265    0.0000 C   0  0
    3.0294   -5.0428    0.0000 C   0  0
    3.6202   -5.2483    0.0000 C   0  0
    4.0959   -4.8344    0.0000 C   0  0
    3.9773   -4.2233    0.0000 C   0  0
    2.3211   -4.2205    0.0000 C   0  0
    2.2044   -3.6064    0.0000 F   0  0
    1.8476   -4.6285    0.0000 F   0  0
    2.6728   -3.7039    0.0000 F   0  0
    4.6869   -5.0379    0.0000 C   0  0
    4.7913   -5.5737    0.0000 N   0  0
    5.7168   -5.3978    0.0000 C   0  0
    5.6149   -4.8617    0.0000 C   0  0
    5.0979   -4.6794    0.0000 S   0  0
    6.2335   -5.7494    0.0000 C   0  0
    6.0288   -4.5059    0.0000 C   0  0
    6.5438   -4.6866    0.0000 O   0  0
    7.0350   -4.4398    0.0000 C   0  0
    7.4939   -4.7437    0.0000 C   0  0
    7.9848   -4.4974    0.0000 C   0  0
    8.0169   -3.9479    0.0000 C   0  0
    7.5542   -3.6460    0.0000 C   0  0
    7.0653   -3.8940    0.0000 C   0  0
    8.5083   -3.7002    0.0000 C   0  0
    8.9954   -3.9535    0.0000 N   0  0
    9.3862   -3.5660    0.0000 O   0  0
    9.1385   -3.0746    0.0000 C   0  0
    8.5946   -3.1585    0.0000 N   0  0
    9.3903   -2.5853    0.0000 O   0  0
    8.4435   -4.7993    0.0000 O   0  0
    8.4115   -5.3475    0.0000 C   0  0
    6.6062   -3.5942    0.0000 Br  0  0
 29 25  1  0
 13 14  2  0
 28 30  2  0
 14 15  1  0
 21 31  1  0
 15 11  1  0
 31 32  1  0
 12 13  1  0
 13 16  1  0
  2  7  1  0
  2  3  1  0
 14 17  1  0
  7  8  1  0
 17 18  1  0
 18 19  1  0
  7  9  1  0
 19 20  2  0
  3  4  2  0
 20 21  1  0
  7 10  1  0
 21 22  2  0
 22 23  1  0
  5 11  1  0
 23 24  2  0
 24 19  1  0
 11 12  2  0
 22 25  1  0
 25 26  2  0
  4  5  1  0
  1  2  2  0
  5  6  2  0
  6  1  1  0
 26 27  1  0
 27 28  1  0
 28 29  1  0
 24 33  1  0
M  END
>  <ID_NEW>
CPDPP3424

>  <pEC50>
5.508443344261136

$$$$

  SciTegic12180812592D

 34 37  0  0  0  0            999 V2000
  -11.1060  -16.3578    0.0000 C   0  0
  -11.0926  -17.8578    0.0000 C   0  0
   -9.7869  -18.5961    0.0000 C   0  0
   -8.4946  -17.8346    0.0000 C   0  0
   -8.5080  -16.3346    0.0000 C   0  0
   -9.8137  -15.5963    0.0000 C   0  0
  -12.4117  -15.6195    0.0000 Cl  0  0
   -7.2158  -15.5731    0.0000 C   0  0
   -5.9101  -16.3114    0.0000 N   0  0
   -7.2292  -14.0731    0.0000 O   0  0
   -4.6178  -15.5499    0.0000 C   0  0
   -3.3121  -16.2882    0.0000 C   0  0
   -2.0198  -15.5267    0.0000 C   0  0
   -0.7141  -16.2650    0.0000 C   0  0
    0.5782  -15.5034    0.0000 C   0  0
    0.5648  -14.0035    0.0000 C   0  0
   -0.7409  -13.2651    0.0000 C   0  0
   -2.0332  -14.0267    0.0000 C   0  0
    1.8571  -13.2419    0.0000 S   0  0
    3.2620  -12.7163    0.0000 O   0  0
    2.5031  -14.5957    0.0000 O   0  0
   -7.1890  -18.5729    0.0000 Cl  0  0
    2.5071  -10.7265    0.0000 C   0  0
    3.9906  -10.9479    0.0000 N   0  0
    4.6596   -9.6054    0.0000 N   0  0
    3.5896   -8.5542    0.0000 C   0  0
    2.2592   -9.2471    0.0000 S   0  0
    1.4559  -11.7966    0.0000 N   0  0
    3.8110   -7.0706    0.0000 C   0  0
    5.2065   -6.5206    0.0000 C   0  0
    5.4279   -5.0370    0.0000 C   0  0
    4.2538   -4.1035    0.0000 C   0  0
    2.8583   -4.6535    0.0000 C   0  0
    2.6369   -6.1371    0.0000 C   0  0
  9 11  1  0
  6  1  1  0
 11 12  1  0
  1  2  2  0
 12 13  1  0
  1  7  1  0
 13 14  2  0
  3  4  2  0
 14 15  1  0
 15 16  2  0
 16 17  1  0
  5  8  1  0
 17 18  2  0
 18 13  1  0
  4  5  1  0
 16 19  1  0
  8  9  1  0
 19 20  2  0
  2  3  1  0
 19 21  2  0
  8 10  2  0
  5  6  2  0
  4 22  1  0
 28 23  1  0
 26 29  1  0
 24 25  1  0
 29 30  2  0
 25 26  2  0
 30 31  1  0
 26 27  1  0
 31 32  2  0
 27 23  1  0
 32 33  1  0
 23 24  2  0
 33 34  2  0
 34 29  1  0
 19 28  1  0
M  END
>  <ID_NEW>
CPDPP3425

>  <pEC50>
5.4970037092855115

$$$$

  SciTegic12180813042D

 27 29  0  0  0  0            999 V2000
   -2.7962    2.6414    0.0000 C   0  0
   -3.1231    1.6977    0.0000 C   0  0
   -2.5577    0.8754    0.0000 C   0  0
   -1.5580    0.8526    0.0000 C   0  0
   -5.8329    0.2690    0.0000 C   0  0
   -4.9286   -0.1585    0.0000 C   0  0
   -4.8437   -1.1551    0.0000 C   0  0
   -4.1009    0.4107    0.0000 C   0  0
   -4.0820    1.4104    0.0000 N   0  0
   -3.1612    0.0800    0.0000 O   0  0
   -1.8155    2.8283    0.0000 O   0  0
   -1.8208    3.8292    0.0000 C   0  0
   -1.0779   -0.0246    0.0000 O   0  0
   -0.0731   -0.0485    0.0000 C   0  0
    0.4011   -0.9307    0.0000 C   0  0
    1.4032   -0.9558    0.0000 C   0  0
    1.9273   -0.0989    0.0000 C   0  0
    1.4418    0.7852    0.0000 C   0  0
    0.4412    0.8061    0.0000 C   0  0
    2.9315   -0.1223    0.0000 C   0  0
    1.9645    1.6479    0.0000 Cl  0  0
   -3.9445   -0.3375    0.0000 C   0  0
    3.5026   -0.9447    0.0000 N   0  0
    4.4649   -0.6567    0.0000 O   0  0
    4.4883    0.3476    0.0000 C   0  0
    3.5405    0.6800    0.0000 N   0  0
    5.3145    0.9190    0.0000 O   0  0
  1  2  1  0
  3  4  1  0
  8  9  2  0
  8 10  1  0
  5  6  1  0
  6  7  1  0
  6  8  1  0
  2  9  1  0
  3 10  1  0
  2  3  2  0
  1 11  1  0
 11 12  1  0
  4 13  1  0
 13 14  1  0
 14 15  2  0
 15 16  1  0
 16 17  2  0
 17 18  1  0
 18 19  2  0
 19 14  1  0
 17 20  1  0
 18 21  1  0
  6 22  1  0
 20 23  2  0
 23 24  1  0
 24 25  1  0
 25 26  1  0
 26 20  1  0
 25 27  2  0
M  END
>  <ID_NEW>
CPDPP3426

>  <pEC50>
5.482731523580636

$$$$

  SciTegic12180812332D

 40 45  0  0  0  0            999 V2000
   -4.4014    2.5625    0.0000 C   0  0
   -4.4026    1.7352    0.0000 C   0  0
   -3.6878    1.3223    0.0000 C   0  0
   -2.9713    1.7356    0.0000 C   0  0
   -2.9742    2.5662    0.0000 C   0  0
   -3.6896    2.9753    0.0000 C   0  0
   -5.1160    2.9749    0.0000 C   0  0
   -5.1162    3.7999    0.0000 F   0  0
   -5.8304    2.5622    0.0000 F   0  0
   -4.5328    3.5584    0.0000 F   0  0
   -2.2562    1.3243    0.0000 C   0  0
   -2.1681    0.5064    0.0000 N   0  0
   -1.3609    0.3361    0.0000 C   0  0
   -0.9495    1.0513    0.0000 C   0  0
   -1.5026    1.6634    0.0000 S   0  0
   -1.0242   -0.4170    0.0000 C   0  0
   -0.1292    1.1389    0.0000 C   0  0
    0.3569    0.4722    0.0000 N   0  0
    0.2052    1.8931    0.0000 O   0  0
    1.1772    0.5598    0.0000 C   0  0
    1.7308   -0.0486    0.0000 C   0  0
    1.5890    1.2787    0.0000 C   0  0
    2.3963    1.1086    0.0000 C   0  0
    2.4807    0.2890    0.0000 C   0  0
    3.2314   -0.0461    0.0000 C   0  0
    3.8983    0.4374    0.0000 C   0  0
    3.8096    1.2598    0.0000 C   0  0
    3.0587    1.5911    0.0000 C   0  0
    2.9707    2.4114    0.0000 S   0  0
    3.6370    2.8978    0.0000 N   0  0
    4.3915    2.5639    0.0000 C   0  0
    2.9625    3.2375    0.0000 O   0  0
    2.2500    2.0042    0.0000 O   0  0
    4.5668    1.7622    0.0000 N   0  0
    5.3875    1.6778    0.0000 N   0  0
    5.7214    2.4323    0.0000 C   0  0
    5.1070    2.9829    0.0000 S   0  0
    6.5280    2.6057    0.0000 C   0  0
    7.0814    1.9939    0.0000 C   0  0
    6.7811    3.3909    0.0000 C   0  0
  1  2  2  0
  2  3  1  0
  3  4  2  0
  4  5  1  0
  5  6  2  0
  6  1  1  0
  1  7  1  0
  7  8  1  0
  7  9  1  0
  7 10  1  0
  4 11  1  0
 11 12  2  0
 12 13  1  0
 13 14  2  0
 14 15  1  0
 15 11  1  0
 13 16  1  0
 14 17  1  0
 17 18  1  0
 17 19  2  0
 18 20  1  0
 20 21  1  0
 21 24  1  0
 23 22  1  0
 22 20  1  0
 23 24  2  0
 24 25  1  0
 25 26  2  0
 26 27  1  0
 27 28  2  0
 28 23  1  0
 28 29  1  0
 29 30  1  0
 30 31  1  0
 29 32  2  0
 29 33  2  0
 31 34  2  0
 34 35  1  0
 35 36  2  0
 36 37  1  0
 37 31  1  0
 36 38  1  0
 38 39  1  0
 38 40  1  0
 40 39  1  0
M  END
>  <ID_NEW>
CPDPP3427

>  <pEC50>
5.481486060122112

$$$$

  SciTegic12180812592D

 31 34  0  0  0  0            999 V2000
    0.8319    2.2809    0.0000 C   0  0
    0.2067    1.7390    0.0000 C   0  0
    0.3639    0.9286    0.0000 C   0  0
    1.1459    0.6590    0.0000 C   0  0
    1.7709    1.2060    0.0000 C   0  0
    1.6104    2.0143    0.0000 C   0  0
   -0.2589    0.3876    0.0000 C   0  0
    2.2315    2.5574    0.0000 C   0  0
   -1.0388    0.6565    0.0000 N   0  0
   -3.1409    1.0745    0.0000 C   0  0
   -3.1406    0.2435    0.0000 C   0  0
   -2.3501   -0.0131    0.0000 S   0  0
   -1.8618    0.6594    0.0000 C   0  0
   -2.3506    1.3315    0.0000 N   0  0
   -3.8085    1.5592    0.0000 C   0  0
   -3.7201    2.3773    0.0000 C   0  0
   -4.3869    2.8618    0.0000 C   0  0
   -5.1414    2.5261    0.0000 C   0  0
   -5.2252    1.7011    0.0000 C   0  0
   -4.5575    1.2202    0.0000 C   0  0
   -5.8097    3.0099    0.0000 O   0  0
   -5.7248    3.8305    0.0000 C   0  0
   -1.1794   -0.1564    0.0000 C   0  0
   -0.5456   -0.6846    0.0000 C   0  0
   -0.6862   -1.4976    0.0000 C   0  0
   -0.0525   -2.0258    0.0000 C   0  0
    3.0336    2.3757    0.0000 N   0  0
    3.4565    3.0842    0.0000 C   0  0
    2.9134    3.7053    0.0000 O   0  0
    2.1549    3.3806    0.0000 N   0  0
    4.2782    3.1585    0.0000 O   0  0
  1  2  2  0
  2  3  1  0
  3  4  2  0
  4  5  1  0
  5  6  2  0
  6  1  1  0
  3  7  1  0
  6  8  1  0
  7  9  1  0
 10 11  2  0
 11 12  1  0
 12 13  1  0
 13 14  2  0
 14 10  1  0
 13  9  1  0
 10 15  1  0
 15 16  2  0
 16 17  1  0
 17 18  2  0
 18 19  1  0
 19 20  2  0
 20 15  1  0
 18 21  1  0
 21 22  1  0
  9 23  1  0
 23 24  1  0
 24 25  1  0
 25 26  1  0
  8 27  1  0
 27 28  1  0
 28 29  1  0
 29 30  1  0
 30  8  2  0
 28 31  2  0
M  END
>  <ID_NEW>
CPDPP3428

>  <pEC50>
5.47826054129835

$$$$

  SciTegic12180812592D

 33 35  0  0  0  0            999 V2000
   11.6199   -9.2105    0.0000 C   0  0
   11.6333  -10.7104    0.0000 C   0  0
   12.9390  -11.4488    0.0000 C   0  0
   14.2313  -10.6872    0.0000 C   0  0
   14.2179   -9.1873    0.0000 C   0  0
   12.9122   -8.4489    0.0000 C   0  0
   10.3142   -8.4721    0.0000 Cl  0  0
   15.5369  -11.4256    0.0000 O   0  0
   15.5102   -8.4257    0.0000 C   0  0
   16.8158   -9.1641    0.0000 N   0  0
   15.4968   -6.9258    0.0000 O   0  0
   18.1081   -8.4025    0.0000 C   0  0
   19.4138   -9.1409    0.0000 C   0  0
   20.7061   -8.3793    0.0000 C   0  0
   22.0118   -9.1177    0.0000 C   0  0
   23.3041   -8.3561    0.0000 C   0  0
   23.2907   -6.8562    0.0000 C   0  0
   21.9850   -6.1178    0.0000 C   0  0
   20.6927   -6.8794    0.0000 C   0  0
   24.5830   -6.0946    0.0000 S   0  0
   25.9879   -5.5690    0.0000 O   0  0
   25.2290   -7.4483    0.0000 O   0  0
   15.5503  -12.9255    0.0000 C   0  0
   26.5369    0.0767    0.0000 C   0  0
   26.3155   -1.4069    0.0000 C   0  0
   28.0272    0.2468    0.0000 C   0  0
   25.0397    0.1680    0.0000 C   0  0
   26.4973    1.5762    0.0000 C   0  0
   24.9851   -2.0998    0.0000 S   0  0
   27.3856   -2.4580    0.0000 N   0  0
   25.2330   -3.5791    0.0000 C   0  0
   26.7165   -3.8006    0.0000 N   0  0
   24.1818   -4.6492    0.0000 N   0  0
 10 12  1  0
  6  1  1  0
 12 13  1  0
  1  2  2  0
 13 14  1  0
  1  7  1  0
 14 15  2  0
  3  4  2  0
 15 16  1  0
  4  8  1  0
 16 17  2  0
 17 18  1  0
  5  9  1  0
 18 19  2  0
 19 14  1  0
  4  5  1  0
 17 20  1  0
  9 10  1  0
 20 21  2  0
  2  3  1  0
 20 22  2  0
  9 11  2  0
  5  6  2  0
  8 23  1  0
 24 25  1  0
 24 26  1  0
 24 27  1  0
 24 28  1  0
 25 29  1  0
 25 30  2  0
 29 31  1  0
 30 32  1  0
 31 33  1  0
 31 32  2  0
 20 33  1  0
M  END
>  <ID_NEW>
CPDPP3429

>  <pEC50>
5.475183373544088

$$$$

  SciTegic12180813072D

 32 35  0  0  0  0            999 V2000
   -4.6448    1.5319    0.0000 C   0  0
   -4.6425    2.6128    0.0000 C   0  0
   -4.0162    1.5325    0.0000 C   0  0
   -4.0150    2.6154    0.0000 C   0  0
   -3.7024    2.0672    0.0000 C   0  0
   -3.6991    0.9830    0.0000 C   0  0
   -3.0743    2.0682    0.0000 C   0  0
   -2.7586    1.5307    0.0000 O   0  0
    1.0018    3.5538    0.0000 N   0  0
    1.5395    3.2407    0.0000 C   0  0
    1.6739    2.6219    0.0000 N   0  0
    2.2945    2.5541    0.0000 N   0  0
    2.5533    3.1168    0.0000 C   0  0
    2.0911    3.5470    0.0000 S   0  0
   -1.1750    2.9254    0.0000 C   0  0
   -1.1750    2.3005    0.0000 C   0  0
   -1.7669    3.1186    0.0000 C   0  0
   -0.6350    3.2448    0.0000 C   0  0
   -1.7705    2.1108    0.0000 C   0  0
   -0.6371    1.9887    0.0000 C   0  0
   -2.1342    2.6126    0.0000 C   0  0
   -0.0949    2.9266    0.0000 C   0  0
   -0.0923    2.3026    0.0000 C   0  0
   -2.7596    2.6111    0.0000 N   0  0
    0.4579    3.2451    0.0000 S   0  0
    0.7694    2.6925    0.0000 O   0  0
    0.1414    3.7844    0.0000 O   0  0
    3.1661    3.2409    0.0000 C   0  0
    3.5779    2.7697    0.0000 C   0  0
    3.3672    3.8320    0.0000 C   0  0
   -4.9571    2.0693    0.0000 C   0  0
   -5.5787    2.0688    0.0000 Cl  0  0
 25  9  1  0
 25 26  2  0
 25 27  2  0
 22 25  1  0
  9 10  1  0
 10 11  2  0
 11 12  1  0
 12 13  2  0
 13 14  1  0
 14 10  1  0
 15 16  2  0
 15 17  1  0
 15 18  1  0
 16 19  1  0
 16 20  1  0
 17 21  1  0
 18 22  2  0
 20 23  2  0
 21 24  1  0
 19 21  1  0
 22 23  1  0
  7  8  2  0
  4  5  1  0
 31  1  2  0
 31  2  1  0
  1  3  1  0
  2  4  2  0
  3  5  2  0
  3  6  1  0
  5  7  1  0
 24  7  1  0
 13 28  1  0
 28 29  1  0
 28 30  1  0
 31 32  1  0
M  END
>  <ID_NEW>
CPDPP3430

>  <pEC50>
5.474201665094729

$$$$

  SciTegic12180813022D

 28 31  0  0  0  0            999 V2000
   -4.4009    1.6621    0.0000 C   0  0
   -3.6863    2.0771    0.0000 C   0  0
   -5.1181    2.0767    0.0000 C   0  0
   -5.8289    1.6650    0.0000 C   0  0
   -5.8300    0.8396    0.0000 C   0  0
   -5.1141    0.4276    0.0000 C   0  0
   -4.3971    0.8410    0.0000 C   0  0
   -2.9317    1.7470    0.0000 O   0  0
   -2.3820    2.3622    0.0000 C   0  0
   -2.7973    3.0751    0.0000 C   0  0
   -3.6035    2.9004    0.0000 N   0  0
   -2.4646    3.8301    0.0000 C   0  0
   -1.5612    2.2790    0.0000 C   0  0
   -1.2229    1.5266    0.0000 O   0  0
   -0.4021    1.4434    0.0000 C   0  0
   -0.0688    0.6902    0.0000 C   0  0
    0.7512    0.6067    0.0000 C   0  0
    1.2346    1.2764    0.0000 C   0  0
    0.8921    2.0316    0.0000 C   0  0
    0.0731    2.1115    0.0000 C   0  0
    1.3722    2.7025    0.0000 Cl  0  0
    2.0555    1.1942    0.0000 C   0  0
   -4.6502    2.4485    0.0000 C   0  0
    2.4723    0.4840    0.0000 N   0  0
    3.2784    0.6595    0.0000 O   0  0
    3.3606    1.4804    0.0000 C   0  0
    2.6053    1.8121    0.0000 N   0  0
    4.0730    1.8965    0.0000 O   0  0
  1  2  1  0
  1  3  1  0
  1  7  1  0
  8  9  1  0
  9 10  2  0
 10 11  1  0
 11  2  2  0
  3  4  1  0
 10 12  1  0
  4  5  1  0
  9 13  1  0
  5  6  1  0
  6  7  1  0
  2  8  1  0
 13 14  1  0
 14 15  1  0
 15 16  2  0
 16 17  1  0
 17 18  2  0
 18 19  1  0
 19 20  2  0
 20 15  1  0
 19 21  1  0
 18 22  1  0
  1 23  1  0
 22 24  2  0
 24 25  1  0
 25 26  1  0
 26 27  1  0
 27 22  1  0
 26 28  2  0
M  END
>  <ID_NEW>
CPDPP3431

>  <pEC50>
5.4615058187354455

$$$$

  SciTegic12180813002D

 31 33  0  0  0  0            999 V2000
   20.7484   -7.5806    0.0000 C   0  0
   22.0521   -8.3224    0.0000 C   0  0
   23.3464   -7.5643    0.0000 C   0  0
   23.3370   -6.0643    0.0000 C   0  0
   22.0332   -5.3225    0.0000 C   0  0
   20.7389   -6.0807    0.0000 C   0  0
   11.6600   -8.3878    0.0000 C   0  0
   11.6694   -9.8877    0.0000 C   0  0
   12.9731  -10.6296    0.0000 C   0  0
   14.2674   -9.8714    0.0000 C   0  0
   14.2580   -8.3714    0.0000 C   0  0
   12.9543   -7.6296    0.0000 C   0  0
   10.3563   -7.6459    0.0000 Cl  0  0
   15.5712  -10.6132    0.0000 C   0  0
   15.5523   -7.6133    0.0000 C   0  0
   16.8560   -8.3551    0.0000 N   0  0
   18.1503   -7.5970    0.0000 C   0  0
   19.4541   -8.3388    0.0000 C   0  0
   24.6313   -5.3062    0.0000 S   0  0
   26.0375   -4.7843    0.0000 O   0  0
   25.2737   -6.6616    0.0000 O   0  0
   15.5429   -6.1133    0.0000 O   0  0
   26.7709   -3.0178    0.0000 N   0  0
   27.4434   -1.6770    0.0000 N   0  0
   26.3761   -0.6230    0.0000 C   0  0
   25.0439   -1.3124    0.0000 S   0  0
   25.2879   -2.7925    0.0000 C   0  0
   24.2339   -3.8598    0.0000 N   0  0
   26.6015    0.8599    0.0000 C   0  0
   25.4299    1.7966    0.0000 C   0  0
   27.9984    1.4063    0.0000 C   0  0
  4 19  1  0
  9 10  2  0
 19 20  2  0
  2  3  1  0
 19 21  2  0
 10 11  1  0
  5  6  2  0
 15 22  2  0
 11 12  2  0
 12  7  1  0
  6  1  1  0
  7 13  1  0
  1  2  2  0
 10 14  1  0
  3  4  2  0
 11 15  1  0
  7  8  2  0
 15 16  1  0
 16 17  1  0
  8  9  1  0
 17 18  1  0
 18  1  1  0
  4  5  1  0
 26 27  1  0
 27 23  2  0
 23 24  1  0
 27 28  1  0
 25 29  1  0
 24 25  2  0
 29 30  1  0
 25 26  1  0
 29 31  1  0
 19 28  1  0
M  END
>  <ID_NEW>
CPDPP3432

>  <pEC50>
5.455618585886177

$$$$

  SciTegic12180812592D

 31 33  0  0  0  0            999 V2000
  -11.2078  -11.3012    0.0000 C   0  0
  -11.1944  -12.8011    0.0000 C   0  0
   -9.8887  -13.5395    0.0000 C   0  0
   -8.5964  -12.7779    0.0000 C   0  0
   -8.6098  -11.2780    0.0000 C   0  0
   -9.9155  -10.5396    0.0000 C   0  0
  -12.5134  -10.5628    0.0000 Cl  0  0
   -7.3175  -10.5164    0.0000 C   0  0
   -6.0118  -11.2548    0.0000 N   0  0
   -7.3309   -9.0165    0.0000 O   0  0
   -4.7195  -10.4932    0.0000 C   0  0
   -3.4138  -11.2316    0.0000 C   0  0
   -2.1215  -10.4700    0.0000 C   0  0
   -0.8159  -11.2084    0.0000 C   0  0
    0.4764  -10.4468    0.0000 C   0  0
    0.4630   -8.9469    0.0000 C   0  0
   -0.8426   -8.2085    0.0000 C   0  0
   -2.1349   -8.9701    0.0000 C   0  0
    1.7553   -8.1853    0.0000 S   0  0
    3.1602   -7.6597    0.0000 O   0  0
    2.4014   -9.5390    0.0000 O   0  0
   -7.2907  -13.5163    0.0000 Cl  0  0
    3.4878   -3.4976    0.0000 C   0  0
    2.1574   -4.1905    0.0000 S   0  0
    4.5579   -4.5487    0.0000 N   0  0
    3.7092   -2.0140    0.0000 C   0  0
    2.4053   -5.6698    0.0000 C   0  0
    3.8889   -5.8913    0.0000 N   0  0
    5.1047   -1.4640    0.0000 C   0  0
    2.5351   -1.0805    0.0000 C   0  0
    1.3542   -6.7399    0.0000 N   0  0
  9 11  1  0
  6  1  1  0
 11 12  1  0
  1  2  2  0
 12 13  1  0
  1  7  1  0
 13 14  2  0
  3  4  2  0
 14 15  1  0
 15 16  2  0
 16 17  1  0
  5  8  1  0
 17 18  2  0
 18 13  1  0
  4  5  1  0
 16 19  1  0
  8  9  1  0
 19 20  2  0
  2  3  1  0
 19 21  2  0
  8 10  2  0
  5  6  2  0
  4 22  1  0
 23 24  1  0
 23 25  2  0
 23 26  1  0
 24 27  1  0
 25 28  1  0
 26 29  1  0
 26 30  1  0
 27 31  1  0
 27 28  2  0
 19 31  1  0
M  END
>  <ID_NEW>
CPDPP3433

>  <pEC50>
5.454962730785645

$$$$

  SciTegic12180813002D

 32 34  0  0  0  0            999 V2000
   -1.8722  -11.8946    0.0000 C   0  0
   -0.5685  -12.6364    0.0000 C   0  0
    0.7258  -11.8783    0.0000 C   0  0
    0.7164  -10.3783    0.0000 C   0  0
   -0.5873   -9.6365    0.0000 C   0  0
   -1.8816  -10.3946    0.0000 C   0  0
  -10.9606  -12.7017    0.0000 C   0  0
  -10.9511  -14.2017    0.0000 C   0  0
   -9.6474  -14.9435    0.0000 C   0  0
   -8.3531  -14.1854    0.0000 C   0  0
   -8.3625  -12.6854    0.0000 C   0  0
   -9.6663  -11.9436    0.0000 C   0  0
  -12.2643  -11.9599    0.0000 Cl  0  0
   -7.0494  -14.9272    0.0000 C   0  0
   -7.0682  -11.9273    0.0000 C   0  0
   -5.7645  -12.6691    0.0000 N   0  0
   -4.4702  -11.9109    0.0000 C   0  0
   -3.1665  -12.6527    0.0000 C   0  0
    2.0107   -9.6201    0.0000 S   0  0
    3.4170   -9.0983    0.0000 O   0  0
    2.6532  -10.9756    0.0000 O   0  0
   -7.0777  -10.4273    0.0000 O   0  0
    4.1503   -7.3317    0.0000 N   0  0
    4.8229   -5.9910    0.0000 N   0  0
    3.7556   -4.9370    0.0000 C   0  0
    2.4234   -5.6264    0.0000 S   0  0
    2.6674   -7.1064    0.0000 C   0  0
    1.6134   -8.1737    0.0000 N   0  0
    3.9809   -3.4540    0.0000 C   0  0
    2.6068   -2.8526    0.0000 C   0  0
    4.4604   -2.0327    0.0000 C   0  0
    5.4386   -3.8078    0.0000 C   0  0
  9 10  2  0
 19 20  2  0
  2  3  1  0
 19 21  2  0
 10 11  1  0
  5  6  2  0
 15 22  2  0
 11 12  2  0
 12  7  1  0
  6  1  1  0
  7 13  1  0
  1  2  2  0
 10 14  1  0
  3  4  2  0
 11 15  1  0
  7  8  2  0
 15 16  1  0
 16 17  1  0
  8  9  1  0
 17 18  1  0
 18  1  1  0
  4  5  1  0
  4 19  1  0
 27 23  2  0
 23 24  1  0
 27 28  1  0
 25 29  1  0
 24 25  2  0
 29 30  1  0
 25 26  1  0
 29 31  1  0
 26 27  1  0
 29 32  1  0
 19 28  1  0
M  END
>  <ID_NEW>
CPDPP3434

>  <pEC50>
5.45150431863939

$$$$

  -MTS-   10172316532D 0   0.00000     0.00000     0

 31 34  0  0  0  0  0  0  0  0999 V2000
    2.3670   -4.0340    0.0000 C   0  0  2  0  0  0  0  0  0  0  0  0
    3.0800   -3.6190    0.0000 C   0  0  0  0  0  0  0  0  0  0  0  0
    1.6490   -3.6190    0.0000 C   0  0  0  0  0  0  0  0  0  0  0  0
    0.9380   -4.0310    0.0000 C   0  0  0  0  0  0  0  0  0  0  0  0
    0.9370   -4.8560    0.0000 C   0  0  1  0  0  0  0  0  0  0  0  0
    1.6530   -5.2680    0.0000 C   0  0  0  0  0  0  0  0  0  0  0  0
    2.3700   -4.8550    0.0000 C   0  0  0  0  0  0  0  0  0  0  0  0
    3.8350   -3.9490    0.0000 O   0  0  0  0  0  0  0  0  0  0  0  0
    4.3850   -3.3340    0.0000 C   0  0  0  0  0  0  0  0  0  0  0  0
    3.9690   -2.6210    0.0000 C   0  0  0  0  0  0  0  0  0  0  0  0
    3.1630   -2.7950    0.0000 N   0  0  0  0  0  0  0  0  0  0  0  0
    4.3020   -1.8660    0.0000 C   0  0  0  0  0  0  0  0  0  0  0  0
    5.2050   -3.4170    0.0000 C   0  0  0  0  0  0  0  0  0  0  0  0
    5.5440   -4.1690    0.0000 O   0  0  0  0  0  0  0  0  0  0  0  0
    6.3650   -4.2520    0.0000 C   0  0  0  0  0  0  0  0  0  0  0  0
    6.6980   -5.0060    0.0000 C   0  0  0  0  0  0  0  0  0  0  0  0
    7.5180   -5.0890    0.0000 C   0  0  0  0  0  0  0  0  0  0  0  0
    8.0010   -4.4190    0.0000 C   0  0  0  0  0  0  0  0  0  0  0  0
    7.6590   -3.6640    0.0000 C   0  0  0  0  0  0  0  0  0  0  0  0
    6.8400   -3.5840    0.0000 C   0  0  0  0  0  0  0  0  0  0  0  0
    8.1390   -2.9930    0.0000 Cl  0  0  0  0  0  0  0  0  0  0  0  0
    8.8220   -4.5020    0.0000 C   0  0  0  0  0  0  0  0  0  0  0  0
    0.2220   -5.2690    0.0000 C   0  0  0  0  0  0  0  0  0  0  0  0
   -0.4920   -4.8560    0.0000 F   0  0  0  0  0  0  0  0  0  0  0  0
    0.2220   -6.0940    0.0000 F   0  0  0  0  0  0  0  0  0  0  0  0
    0.0090   -4.4720    0.0000 F   0  0  0  0  0  0  0  0  0  0  0  0
    9.2390   -5.2120    0.0000 N   0  0  0  0  0  0  0  0  0  0  0  0
   10.0450   -5.0360    0.0000 O   0  0  0  0  0  0  0  0  0  0  0  0
   10.1270   -4.2150    0.0000 C   0  0  0  0  0  0  0  0  0  0  0  0
    9.3720   -3.8840    0.0000 N   0  0  0  0  0  0  0  0  0  0  0  0
   10.8400   -3.7990    0.0000 O   0  0  0  0  0  0  0  0  0  0  0  0
  1  2  1  1  0  0  0
  1  3  1  0  0  0  0
  1  7  1  0  0  0  0
  8  9  1  0  0  0  0
  9 10  2  0  0  0  0
 10 11  1  0  0  0  0
 11  2  2  0  0  0  0
  3  4  1  0  0  0  0
 10 12  1  0  0  0  0
  4  5  1  0  0  0  0
  9 13  1  0  0  0  0
  5  6  1  0  0  0  0
  6  7  1  0  0  0  0
  2  8  1  0  0  0  0
 13 14  1  0  0  0  0
 14 15  1  0  0  0  0
 15 16  2  0  0  0  0
 16 17  1  0  0  0  0
 17 18  2  0  0  0  0
 18 19  1  0  0  0  0
 19 20  2  0  0  0  0
 20 15  1  0  0  0  0
 19 21  1  0  0  0  0
 18 22  1  0  0  0  0
  5 23  1  1  0  0  0
 23 24  1  0  0  0  0
 23 25  1  0  0  0  0
 23 26  1  0  0  0  0
 22 27  2  0  0  0  0
 27 28  1  0  0  0  0
 28 29  1  0  0  0  0
 29 30  1  0  0  0  0
 30 22  1  0  0  0  0
 29 31  2  0  0  0  0
V    1 M1
V    5 M1
M  END
>  <ID_NEW>
CPDPP3435

>  <pEC50>
5.446839190296005

$$$$

  SciTegic12180813062D

 32 34  0  0  0  0            999 V2000
   -1.5471    2.6559    0.0000 C   0  0
   -0.8518    3.0999    0.0000 S   0  0
   -0.4064    2.4095    0.0000 O   0  0
   -1.2972    3.7981    0.0000 O   0  0
   -0.1589    3.5484    0.0000 N   0  0
   -4.3955    1.8112    0.0000 C   0  0
   -3.6780    1.4039    0.0000 C   0  0
   -2.9666    1.8216    0.0000 C   0  0
   -2.2525    1.4130    0.0000 C   0  0
   -1.5415    1.8301    0.0000 C   0  0
   -2.2696    3.0630    0.0000 C   0  0
   -2.9776    2.6436    0.0000 C   0  0
    0.5756    3.1728    0.0000 C   0  0
    0.7013    2.3580    0.0000 S   0  0
    1.5159    2.2278    0.0000 C   0  0
    1.8916    2.9623    0.0000 N   0  0
    1.3090    3.5465    0.0000 N   0  0
    1.8894    1.4921    0.0000 C   0  0
    1.4390    0.8009    0.0000 C   0  0
    2.7132    1.4477    0.0000 C   0  0
   -5.1009    0.5685    0.0000 C   0  0
   -5.8104    0.1517    0.0000 O   0  0
   -5.1070    1.3935    0.0000 N   0  0
   -4.3852    0.1624    0.0000 C   0  0
   -4.3791   -0.6604    0.0000 C   0  0
   -5.0892   -1.0742    0.0000 C   0  0
   -5.0834   -1.8963    0.0000 C   0  0
   -4.3672   -2.3032    0.0000 C   0  0
   -3.6553   -1.8820    0.0000 C   0  0
   -3.6646   -1.0613    0.0000 C   0  0
   -2.9587   -0.6426    0.0000 Cl  0  0
   -4.3599   -3.1269    0.0000 Cl  0  0
  9 10  1  0
 10  1  2  0
  1 11  1  0
 11 12  2  0
 12  8  1  0
  5 13  1  0
 13 14  1  0
 14 15  1  0
 15 16  2  0
 16 17  1  0
 17 13  2  0
 15 18  1  0
 18 19  1  0
 18 20  1  0
  1  2  1  0
  2  3  2  0
  2  4  2  0
  2  5  1  0
 21 22  2  0
 21 23  1  0
 23  6  1  0
  6  7  1  0
  7  8  1  0
  8  9  2  0
 21 24  1  0
 24 25  1  0
 25 26  2  0
 26 27  1  0
 27 28  2  0
 28 29  1  0
 29 30  2  0
 30 25  1  0
 30 31  1  0
 28 32  1  0
M  END
>  <ID_NEW>
CPDPP3436

>  <pEC50>
5.444897283566194

$$$$

  SciTegic12180814002D

 39 42  0  0  0  0            999 V2000
    8.7077   -4.9366    0.0000 C   0  0
    7.9004   -4.7588    0.0000 C   0  0
    7.3462   -5.3719    0.0000 C   0  0
    7.6026   -6.1550    0.0000 C   0  0
    8.4081   -6.3323    0.0000 C   0  0
    8.9585   -5.7238    0.0000 C   0  0
    7.0459   -6.7681    0.0000 Cl  0  0
    7.6465   -3.9723    0.0000 S   0  0
    6.8619   -4.2272    0.0000 O   0  0
    8.4374   -3.7168    0.0000 O   0  0
    8.6547   -7.1184    0.0000 O   0  0
    7.3931   -3.1860    0.0000 N   0  0
    4.0532   -0.9761    0.0000 C   0  0
    3.2217   -0.9763    0.0000 C   0  0
    2.8117   -1.6896    0.0000 C   0  0
    3.2237   -2.4116    0.0000 C   0  0
    4.0500   -2.4116    0.0000 C   0  0
    4.4646   -1.6935    0.0000 C   0  0
    1.9868   -1.6824    0.0000 C   0  0
    1.1592   -1.6748    0.0000 F   0  0
    1.9770   -2.5078    0.0000 F   0  0
    1.9946   -0.8552    0.0000 F   0  0
    5.1819   -2.1083    0.0000 C   0  0
    5.1807   -2.9315    0.0000 C   0  0
    5.8997   -3.3443    0.0000 C   0  0
    5.8979   -1.6955    0.0000 C   0  0
    6.6091   -2.1047    0.0000 C   0  0
    6.6098   -2.9311    0.0000 C   0  0
    7.8750   -2.5229    0.0000 C   0  0
    7.3936   -1.8530    0.0000 C   0  0
    7.8729   -1.1820    0.0000 C   0  0
    7.1018   -2.6240    0.0000 C   0  0
    8.1000   -7.7208    0.0000 C   0  0
    8.3458   -8.5000    0.0000 C   0  0
    7.7875   -9.1042    0.0000 O   0  0
    9.1458   -8.6833    0.0000 C   0  0
    9.9540   -8.8672    0.0000 F   0  0
    9.3293   -7.8828    0.0000 F   0  0
    8.9646   -9.4887    0.0000 F   0  0
  1  2  2  0
  4  7  1  0
  3  4  2  0
  2  8  1  0
  8  9  2  0
  4  5  1  0
 17 18  2  0
 18 13  1  0
 13 14  2  0
 15 16  2  0
 15 19  1  0
 19 20  1  0
 16 17  1  0
 19 21  1  0
 14 15  1  0
 24 25  1  0
 25 28  2  0
 23 24  2  0
 27 26  2  0
 28 12  1  0
 12 29  1  0
 29 30  1  0
 30 27  1  0
 26 23  1  0
 27 28  1  0
 23 18  1  0
 30 31  1  0
 19 22  1  0
 30 32  1  0
 11 33  1  0
  8 10  2  0
 33 34  1  0
  2  3  1  0
 34 35  1  0
  5  6  2  0
 34 36  1  0
  5 11  1  0
 36 37  1  0
  6  1  1  0
 36 38  1  0
  8 12  1  0
 36 39  1  0
M  END
>  <ID_NEW>
CPDPP3437

>  <pEC50>
5.4440676457243535

$$$$

  SciTegic12180813042D

 37 39  0  0  0  0            999 V2000
   -2.8166    3.7892    0.0000 N   0  0
   -1.3793    3.7899    0.0000 C   0  0
   -0.6617    3.3716    0.0000 C   0  0
   -0.6589    2.5491    0.0000 C   0  0
    0.0537    2.1349    0.0000 C   0  0
    0.7702    2.5498    0.0000 C   0  0
    0.7696    3.3750    0.0000 C   0  0
    0.0522    3.7854    0.0000 C   0  0
    1.4916    2.1290    0.0000 S   0  0
    1.0697    1.4082    0.0000 N   0  0
    2.2106    1.7074    0.0000 O   0  0
    1.9111    2.8467    0.0000 O   0  0
    1.4796    0.6865    0.0000 C   0  0
    1.2285   -0.0960    0.0000 S   0  0
    1.8978   -0.5809    0.0000 C   0  0
    2.5612   -0.1001    0.0000 N   0  0
    2.3055    0.6802    0.0000 N   0  0
    1.9033   -1.4058    0.0000 C   0  0
    1.1885   -1.8185    0.0000 C   0  0
    2.6195   -1.8179    0.0000 C   0  0
   -2.0990    3.3791    0.0000 C   0  0
   -4.2529    2.1421    0.0000 C   0  0
   -3.5343    2.5622    0.0000 C   0  0
   -4.2465    1.3253    0.0000 C   0  0
   -4.9696    2.5337    0.0000 C   0  0
   -2.8230    2.1569    0.0000 C   0  0
   -3.5331    3.3788    0.0000 C   0  0
   -3.5173    0.9050    0.0000 C   0  0
   -5.4492    1.8876    0.0000 F   0  0
   -4.9573    3.3796    0.0000 F   0  0
   -5.8306    2.5802    0.0000 F   0  0
   -2.8200    1.3210    0.0000 C   0  0
   -4.2493    3.7989    0.0000 O   0  0
   -3.4855    0.0865    0.0000 C   0  0
   -3.4543   -0.6593    0.0000 F   0  0
   -4.1253   -0.4807    0.0000 F   0  0
   -2.7993   -0.4292    0.0000 F   0  0
 27  1  1  0
  5  6  2  0
  6  7  1  0
  7  8  2  0
  8  3  1  0
  9 10  1  0
  9 11  2  0
  6  9  1  0
  9 12  2  0
 10 13  1  0
 13 14  1  0
 14 15  1  0
 15 16  2  0
 16 17  1  0
 17 13  2  0
 15 18  1  0
 18 19  1  0
 18 20  1  0
  2  3  1  0
  3  4  2  0
  4  5  1  0
  2 21  1  0
 21  1  1  0
 22 23  2  0
 22 24  1  0
 22 25  1  0
 23 26  1  0
 23 27  1  0
 24 28  2  0
 25 29  1  0
 25 30  1  0
 25 31  1  0
 26 32  2  0
 27 33  2  0
 28 34  1  0
 28 32  1  0
 34 35  1  0
 34 36  1  0
 34 37  1  0
M  END
>  <ID_NEW>
CPDPP3438

>  <pEC50>
5.442443638200371

$$$$

  SciTegic12180813002D

 36 40  0  0  0  0            999 V2000
    0.5257    2.1464    0.0000 C   0  0
   -0.1925    2.5572    0.0000 C   0  0
   -0.9052    2.1407    0.0000 C   0  0
    0.5317    1.3235    0.0000 C   0  0
   -0.1963    3.3822    0.0000 C   0  0
    0.5162    3.7980    0.0000 F   0  0
   -0.9127    3.7914    0.0000 F   0  0
    0.6015    3.1723    0.0000 F   0  0
   -0.1781    0.9047    0.0000 C   0  0
   -0.8962    1.3138    0.0000 C   0  0
   -1.5072    0.7573    0.0000 S   0  0
   -1.1667    0.0042    0.0000 C   0  0
   -0.3454    0.0954    0.0000 N   0  0
   -3.9545    0.0108    0.0000 C   0  0
   -3.9560   -0.7392    0.0000 C   0  0
   -3.3079   -1.1109    0.0000 C   0  0
   -2.6583   -0.7366    0.0000 C   0  0
   -2.6609    0.0134    0.0000 C   0  0
   -3.3090    0.3892    0.0000 C   0  0
   -2.0019   -1.1041    0.0000 C   0  0
   -4.6109    0.3866    0.0000 C   0  0
   -3.3158    1.1392    0.0000 F   0  0
    0.5937   -1.0989    0.0000 N   0  0
    0.5952   -1.8427    0.0000 C   0  0
    1.2399   -0.7205    0.0000 C   0  0
   -0.0582   -0.7231    0.0000 C   0  0
    1.2471   -2.2169    0.0000 C   0  0
    1.8917   -1.0880    0.0000 C   0  0
   -0.7044   -1.1015    0.0000 C   0  0
    1.8933   -1.8411    0.0000 C   0  0
   -1.3563   -0.7257    0.0000 N   0  0
   -4.6934    1.1367    0.0000 N   0  0
   -5.4338    1.2913    0.0000 C   0  0
   -5.8096    0.6349    0.0000 O   0  0
   -5.3014    0.0747    0.0000 N   0  0
   -5.7439    1.9812    0.0000 O   0  0
  1  2  2  0
  2  3  1  0
  3 10  2  0
  9  4  2  0
  4  1  1  0
  2  5  1  0
  5  6  1  0
  5  7  1  0
  5  8  1  0
  9 10  1  0
 10 11  1  0
 11 12  1  0
 12 13  2  0
 13  9  1  0
 17 18  1  0
 15 16  1  0
 19 22  1  0
 18 19  2  0
 19 14  1  0
 14 15  2  0
 17 20  1  0
 16 17  2  0
 14 21  1  0
 23 24  1  0
 23 25  1  0
 23 26  1  0
 24 27  1  0
 25 28  1  0
 26 29  1  0
 27 30  1  0
 29 31  1  0
 28 30  1  0
 20 31  1  0
 31 12  1  0
 21 32  1  0
 32 33  1  0
 33 34  1  0
 34 35  1  0
 35 21  2  0
 33 36  2  0
M  END
>  <ID_NEW>
CPDPP3439

>  <pEC50>
5.441795034303528

$$$$

  SciTegic12180812472D

 35 38  0  0  0  0            999 V2000
    0.8827   -4.3842    0.0000 C   0  0
    1.3531   -5.0680    0.0000 C   0  0
    2.1822   -5.0025    0.0000 C   0  0
    2.5386   -4.2473    0.0000 C   0  0
    1.2389   -3.6325    0.0000 C   0  0
    2.0625   -3.5701    0.0000 C   0  0
    2.4183   -2.8298    0.0000 C   0  0
    1.9547   -2.1470    0.0000 C   0  0
    3.2247   -3.7871    0.0000 O   0  0
    4.0381   -3.9402    0.0000 C   0  0
    0.7759   -2.9586    0.0000 C   0  0
    1.1353   -2.2160    0.0000 C   0  0
    2.9750   -4.7834    0.0000 C   0  0
    3.6875   -4.3667    0.0000 O   0  0
    4.8007   -4.4508    0.0000 C   0  0
    4.8019   -5.2781    0.0000 C   0  0
    5.5120   -5.6910    0.0000 C   0  0
    6.2363   -5.2777    0.0000 C   0  0
    6.2334   -4.4471    0.0000 C   0  0
    5.5138   -4.0380    0.0000 C   0  0
    4.0834   -5.6901    0.0000 C   0  0
    6.9464   -4.0319    0.0000 S   0  0
    3.3725   -5.2770    0.0000 C   0  0
    2.6530   -5.6889    0.0000 N   0  0
    6.5285   -3.3133    0.0000 O   0  0
    7.3535   -4.7425    0.0000 O   0  0
    7.6654   -3.6275    0.0000 N   0  0
    8.3752   -4.0480    0.0000 C   0  0
    8.4490   -4.8686    0.0000 N   0  0
    9.2540   -5.0492    0.0000 N   0  0
    9.6745   -4.3393    0.0000 C   0  0
    9.1293   -3.7202    0.0000 S   0  0
   10.4959   -4.2622    0.0000 C   0  0
   10.9752   -4.9350    0.0000 C   0  0
   10.8421   -3.5123    0.0000 C   0  0
  3  4  1  0
  4  6  2  0
  5  1  2  0
  1  2  1  0
  2  3  2  0
  5  6  1  0
  5 11  1  0
  6  7  1  0
  7  8  2  0
  8 12  1  0
  4  9  1  0
  9 10  1  0
 11 12  2  0
  3 13  1  0
 13 14  2  0
 23 24  1  0
 22 25  2  0
 22 26  2  0
 22 27  1  0
 27 28  1  0
 28 29  2  0
 29 30  1  0
 30 31  2  0
 31 32  1  0
 32 28  1  0
 31 33  1  0
 33 34  1  0
 33 35  1  0
 15 16  2  0
 16 17  1  0
 17 18  2  0
 18 19  1  0
 19 20  2  0
 20 15  1  0
 16 21  1  0
 19 22  1  0
 21 23  1  0
 13 24  1  0
M  END
>  <ID_NEW>
CPDPP3440

>  <pEC50>
5.439819822440931

$$$$

  SciTegic12180813042D

 36 38  0  0  0  0            999 V2000
   -5.0515    2.0376    0.0000 C   0  0
   -5.0527    1.4353    0.0000 C   0  0
   -4.5294    1.1307    0.0000 C   0  0
   -4.5312    2.3379    0.0000 C   0  0
   -4.0076    2.0413    0.0000 C   0  0
   -4.0083    1.4336    0.0000 C   0  0
   -2.9575    2.0489    0.0000 N   0  0
   -3.4832    2.3482    0.0000 C   0  0
   -5.5757    1.1233    0.0000 Cl  0  0
   -3.4836    2.9482    0.0000 O   0  0
   -2.4368    2.3492    0.0000 C   0  0
   -1.9147    2.0548    0.0000 C   0  0
   -1.3926    2.3609    0.0000 C   0  0
   -1.3960    2.9672    0.0000 C   0  0
   -0.8734    3.2739    0.0000 C   0  0
   -0.3492    2.9724    0.0000 C   0  0
   -0.3485    2.3717    0.0000 C   0  0
   -0.8699    2.0672    0.0000 C   0  0
    0.1737    3.2753    0.0000 S   0  0
    0.6945    3.5751    0.0000 N   0  0
   -0.1273    3.7986    0.0000 O   0  0
    0.4748    2.7541    0.0000 O   0  0
   -3.4557    1.1884    0.0000 N   0  0
    1.2177    3.2758    0.0000 C   0  0
    1.2833    2.6778    0.0000 S   0  0
    1.8739    2.5530    0.0000 C   0  0
    2.1732    3.0720    0.0000 N   0  0
    1.7705    3.5220    0.0000 N   0  0
    2.1185    1.9997    0.0000 C   0  0
    1.7634    1.5150    0.0000 C   0  0
    2.7182    1.9392    0.0000 C   0  0
   -3.3918    0.5876    0.0000 C   0  0
   -2.8395    0.3425    0.0000 C   0  0
   -3.8801    0.2319    0.0000 O   0  0
   -2.7756   -0.2582    0.0000 C   0  0
   -2.2234   -0.5033    0.0000 C   0  0
  7  8  1  0
  2  9  1  0
  8 10  2  0
  7 11  1  0
 11 12  1  0
 12 13  1  0
 13 14  2  0
 14 15  1  0
 15 16  2  0
 16 17  1  0
 17 18  2  0
 18 13  1  0
  1  2  2  0
 19 20  1  0
 19 21  2  0
 19 22  2  0
 16 19  1  0
  2  3  1  0
  3  6  2  0
  5  4  2  0
  4  1  1  0
  5  6  1  0
  5  8  1  0
  6 23  1  0
 20 24  1  0
 24 25  1  0
 25 26  1  0
 26 27  2  0
 27 28  1  0
 28 24  2  0
 26 29  1  0
 29 30  1  0
 29 31  1  0
 23 32  1  0
 32 33  1  0
 32 34  2  0
 33 35  1  0
 35 36  1  0
M  END
>  <ID_NEW>
CPDPP3441

>  <pEC50>
5.436995238414775

$$$$

  SciTegic12180813002D

 36 40  0  0  0  0            999 V2000
    0.5257    2.1464    0.0000 C   0  0
   -0.1925    2.5572    0.0000 C   0  0
   -0.9052    2.1407    0.0000 C   0  0
    0.5317    1.3235    0.0000 C   0  0
   -0.1963    3.3822    0.0000 C   0  0
    0.5162    3.7980    0.0000 F   0  0
   -0.9127    3.7914    0.0000 F   0  0
    0.6015    3.1723    0.0000 F   0  0
   -0.1781    0.9047    0.0000 C   0  0
   -0.8962    1.3138    0.0000 C   0  0
   -1.5072    0.7573    0.0000 S   0  0
   -1.1667    0.0042    0.0000 C   0  0
   -0.3454    0.0954    0.0000 N   0  0
   -3.9545    0.0108    0.0000 C   0  0
   -3.9560   -0.7392    0.0000 C   0  0
   -3.3079   -1.1109    0.0000 C   0  0
   -2.6583   -0.7366    0.0000 C   0  0
   -2.6609    0.0134    0.0000 C   0  0
   -3.3090    0.3892    0.0000 C   0  0
   -2.0019   -1.1041    0.0000 C   0  0
   -4.6109    0.3866    0.0000 C   0  0
   -3.3158    1.1392    0.0000 F   0  0
    0.5937   -1.0989    0.0000 N   0  0
    0.5952   -1.8427    0.0000 C   0  0
    1.2399   -0.7205    0.0000 C   0  0
   -0.0582   -0.7231    0.0000 C   0  0
    1.2471   -2.2169    0.0000 C   0  0
    1.8917   -1.0880    0.0000 C   0  0
   -0.7044   -1.1015    0.0000 C   0  0
    1.8933   -1.8411    0.0000 O   0  0
   -1.3563   -0.7257    0.0000 N   0  0
   -4.6934    1.1367    0.0000 N   0  0
   -5.4338    1.2913    0.0000 C   0  0
   -5.8096    0.6349    0.0000 O   0  0
   -5.3014    0.0747    0.0000 N   0  0
   -5.7439    1.9812    0.0000 O   0  0
  1  2  2  0
  2  3  1  0
  3 10  2  0
  9  4  2  0
  4  1  1  0
  2  5  1  0
  5  6  1  0
  5  7  1  0
  5  8  1  0
  9 10  1  0
 10 11  1  0
 11 12  1  0
 12 13  2  0
 13  9  1  0
 17 18  1  0
 15 16  1  0
 19 22  1  0
 18 19  2  0
 19 14  1  0
 14 15  2  0
 17 20  1  0
 16 17  2  0
 14 21  1  0
 23 24  1  0
 23 25  1  0
 23 26  1  0
 24 27  1  0
 25 28  1  0
 26 29  1  0
 27 30  1  0
 29 31  1  0
 28 30  1  0
 20 31  1  0
 31 12  1  0
 21 32  1  0
 32 33  1  0
 33 34  1  0
 34 35  1  0
 35 21  2  0
 33 36  2  0
M  END
>  <ID_NEW>
CPDPP3442

>  <pEC50>
5.435431603080444

$$$$

  -MTS-   10172316532D 0   0.00000     0.00000     0

 34 37  0  0  1  0  0  0  0  0999 V2000
   -4.6200    2.6550    0.0000 N   0  0  0  0  0  0  0  0  0  0  0  0
   -4.7570    1.9850    0.0000 C   0  0  0  0  0  0  0  0  0  0  0  0
   -5.4000    1.7690    0.0000 N   0  0  0  0  0  0  0  0  0  0  0  0
   -5.5370    1.0970    0.0000 C   0  0  0  0  0  0  0  0  0  0  0  0
   -5.0240    0.6470    0.0000 C   0  0  0  0  0  0  0  0  0  0  0  0
   -4.3780    0.8710    0.0000 C   0  0  0  0  0  0  0  0  0  0  0  0
   -4.2450    1.5350    0.0000 C   0  0  0  0  0  0  0  0  0  0  0  0
   -5.1550   -0.0290    0.0000 C   0  0  0  0  0  0  0  0  0  0  0  0
   -5.2880   -0.7030    0.0000 F   0  0  0  0  0  0  0  0  0  0  0  0
   -5.8320    0.1080    0.0000 F   0  0  0  0  0  0  0  0  0  0  0  0
   -4.4810   -0.1610    0.0000 F   0  0  0  0  0  0  0  0  0  0  0  0
   -3.5910    1.7540    0.0000 Cl  0  0  0  0  0  0  0  0  0  0  0  0
   -2.8030    2.6640    0.0000 C   0  0  0  0  0  0  0  0  0  0  0  0
   -2.6860    3.3360    0.0000 C   0  0  0  0  0  0  0  0  0  0  0  0
   -3.4390    2.4330    0.0000 C   0  0  0  0  0  0  0  0  0  0  0  0
   -2.2810    2.2300    0.0000 C   0  0  0  0  0  0  0  0  0  0  0  0
   -3.2070    3.7680    0.0000 C   0  0  0  0  0  0  0  0  0  0  0  0
   -2.0490    3.5690    0.0000 C   0  0  0  0  0  0  0  0  0  0  0  0
   -3.9650    2.8730    0.0000 C   0  0  2  0  0  0  0  0  0  0  0  0
   -1.6420    2.4690    0.0000 C   0  0  0  0  0  0  0  0  0  0  0  0
   -3.8450    3.5320    0.0000 C   0  0  0  0  0  0  0  0  0  0  0  0
   -1.5220    3.1280    0.0000 C   0  0  0  0  0  0  0  0  0  0  0  0
   -1.1090    2.0390    0.0000 S   0  0  0  0  0  0  0  0  0  0  0  0
   -1.5400    1.5070    0.0000 O   0  0  0  0  0  0  0  0  0  0  0  0
   -0.6800    2.5710    0.0000 O   0  0  0  0  0  0  0  0  0  0  0  0
   -0.5790    1.6120    0.0000 N   0  0  0  0  0  0  0  0  0  0  0  0
   -0.6810    0.9380    0.0000 C   0  0  0  0  0  0  0  0  0  0  0  0
   -1.2470    0.5600    0.0000 N   0  0  0  0  0  0  0  0  0  0  0  0
   -1.0610   -0.0960    0.0000 N   0  0  0  0  0  0  0  0  0  0  0  0
   -0.3880   -0.1230    0.0000 C   0  0  0  0  0  0  0  0  0  0  0  0
   -0.1480    0.5140    0.0000 S   0  0  0  0  0  0  0  0  0  0  0  0
   -0.0140   -0.7020    0.0000 C   0  0  0  0  0  0  0  0  0  0  0  0
   -0.3270   -1.3090    0.0000 C   0  0  0  0  0  0  0  0  0  0  0  0
    0.6690   -0.6660    0.0000 C   0  0  0  0  0  0  0  0  0  0  0  0
  2  3  2  0  0  0  0
  3  4  1  0  0  0  0
 14 18  1  0  0  0  0
 15 19  1  0  0  0  0
 16 20  2  0  0  0  0
 17 21  1  0  0  0  0
 18 22  2  0  0  0  0
 19  1  1  1  0  0  0
 19 21  1  0  0  0  0
 20 22  1  0  0  0  0
 20 23  1  0  0  0  0
 23 24  2  0  0  0  0
 23 25  2  0  0  0  0
 23 26  1  0  0  0  0
 13 14  2  0  0  0  0
 13 15  1  0  0  0  0
 13 16  1  0  0  0  0
 14 17  1  0  0  0  0
 26 27  1  0  0  0  0
 27 28  2  0  0  0  0
 28 29  1  0  0  0  0
 29 30  2  0  0  0  0
 30 31  1  0  0  0  0
 31 27  1  0  0  0  0
 30 32  1  0  0  0  0
 32 33  1  0  0  0  0
 32 34  1  0  0  0  0
  4  5  2  0  0  0  0
  5  6  1  0  0  0  0
  6  7  2  0  0  0  0
  7  2  1  0  0  0  0
  1  2  1  0  0  0  0
  8  9  1  0  0  0  0
  8 10  1  0  0  0  0
  8 11  1  0  0  0  0
  5  8  1  0  0  0  0
  7 12  1  0  0  0  0
M  END
>  <ID_NEW>
CPDPP3443

>  <pEC50>
5.427615636113108

$$$$

  SciTegic12180812562D

 28 31  0  0  0  0            999 V2000
    7.2610   -2.6083    0.0000 C   0  0
    7.2598   -3.4356    0.0000 C   0  0
    7.9747   -3.8485    0.0000 C   0  0
    8.6911   -3.4352    0.0000 C   0  0
    8.6882   -2.6046    0.0000 C   0  0
    7.9729   -2.1955    0.0000 C   0  0
    6.5450   -3.8476    0.0000 C   0  0
    5.8309   -3.4345    0.0000 C   0  0
    5.1161   -3.8464    0.0000 N   0  0
    5.1083   -4.6708    0.0000 C   0  0
    5.8208   -5.0833    0.0000 C   0  0
    5.8198   -5.9083    0.0000 C   0  0
    6.5338   -6.3217    0.0000 C   0  0
    9.4011   -2.1894    0.0000 C   0  0
    2.3309   -2.8238    0.0000 C   0  0
    1.6202   -3.2387    0.0000 C   0  0
    1.6272   -4.0650    0.0000 C   0  0
    2.3410   -4.4685    0.0000 C   0  0
    3.0442   -3.2310    0.0000 C   0  0
    3.0473   -4.0572    0.0000 C   0  0
    3.8340   -4.3097    0.0000 N   0  0
    4.3172   -3.6394    0.0000 C   0  0
    3.8290   -2.9729    0.0000 O   0  0
   10.1557   -2.5197    0.0000 N   0  0
   10.7055   -1.9045    0.0000 O   0  0
   10.2902   -1.1915    0.0000 C   0  0
    9.4840   -1.3662    0.0000 N   0  0
   10.5000   -0.3875    0.0000 O   0  0
 10 11  1  0
  7  8  1  0
 11 12  1  0
 19 20  2  0
 15 16  2  0
 19 15  1  0
 16 17  1  0
 17 18  2  0
 20 21  1  0
 21 22  2  0
 22 23  1  0
 23 19  1  0
 18 20  1  0
 22  9  1  0
  8  9  1  0
 12 13  1  0
  1  2  2  0
  2  3  1  0
  5 14  1  0
  3  4  2  0
  4  5  1  0
 14 24  2  0
  5  6  2  0
  6  1  1  0
  2  7  1  0
 24 25  1  0
 25 26  1  0
 26 27  1  0
 27 14  1  0
  9 10  1  0
 26 28  2  0
M  END
>  <ID_NEW>
CPDPP3444

>  <pEC50>
5.411881567451207

$$$$

  SciTegic12180813072D

 31 34  0  0  0  0            999 V2000
   -1.3503    2.6243    0.0000 C   0  0
   -0.8915    2.7793    0.0000 N   0  0
   -1.7102    2.9404    0.0000 N   0  0
   -0.9192    3.3858    0.0000 C   0  0
   -1.4643    3.4394    0.0000 O   0  0
   -0.5254    3.7966    0.0000 O   0  0
   -1.4505    2.1516    0.0000 C   0  0
   -3.7121    1.5819    0.0000 C   0  0
   -4.1381    1.5230    0.0000 C   0  0
   -3.4819    1.9546    0.0000 S   0  0
   -3.4291    1.2591    0.0000 N   0  0
   -4.2993    1.1310    0.0000 C   0  0
   -4.3847    1.8720    0.0000 C   0  0
   -3.0607    1.8619    0.0000 C   0  0
   -3.0318    1.4016    0.0000 C   0  0
   -4.7225    1.0772    0.0000 C   0  0
   -4.8202    1.8145    0.0000 C   0  0
   -2.7288    2.1320    0.0000 C   0  0
   -2.6593    1.1701    0.0000 C   0  0
   -4.9809    1.4245    0.0000 C   0  0
   -2.2657    1.9721    0.0000 O   0  0
   -5.4006    1.3647    0.0000 C   0  0
   -5.8333    1.3323    0.0000 F   0  0
   -5.3669    0.9432    0.0000 F   0  0
   -5.4420    1.7880    0.0000 F   0  0
   -1.7947    1.8186    0.0000 C   0  0
   -1.7042    1.3511    0.0000 C   0  0
   -1.2463    1.2017    0.0000 C   0  0
   -0.8802    1.5170    0.0000 C   0  0
   -0.9803    1.9969    0.0000 C   0  0
   -1.1495    0.7211    0.0000 F   0  0
 28 29  2  0
  3  5  1  0
 29 30  1  0
 30  7  2  0
  7 26  1  0
 28 31  1  0
  4  5  1  0
  4  6  2  0
  7  1  1  0
  1  2  1  0
  8  9  1  0
  8 10  1  0
  8 11  2  0
  9 12  1  0
  9 13  2  0
 10 14  1  0
 11 15  1  0
 12 16  2  0
 13 17  1  0
 14 18  1  0
 15 19  1  0
 16 20  1  0
 18 21  1  0
 20 22  1  0
 22 23  1  0
 22 24  1  0
 22 25  1  0
 14 15  2  0
 17 20  2  0
 21 26  1  0
  1  3  2  0
 26 27  2  0
 27 28  1  0
  2  4  1  0
M  END
>  <ID_NEW>
CPDPP3445

>  <pEC50>
5.406058424825747

$$$$

  SciTegic12180812332D

 30 32  0  0  0  0            999 V2000
   16.0904  -19.7545    0.0000 C   0  0
   15.3271  -21.0458    0.0000 N   0  0
   13.8632  -20.7189    0.0000 N   0  0
   13.7217  -19.2256    0.0000 C   0  0
   15.0982  -18.6296    0.0000 S   0  0
   17.5837  -19.6130    0.0000 C   0  0
   18.2079  -18.2491    0.0000 C   0  0
   18.4529  -20.8356    0.0000 C   0  0
   12.4304  -18.4623    0.0000 N   0  0
   11.1238  -19.1989    0.0000 S   0  0
   10.0741  -18.1274    0.0000 C   0  0
    9.9649  -20.1513    0.0000 O   0  0
   11.9715  -20.4364    0.0000 O   0  0
    8.6213  -18.5008    0.0000 C   0  0
    7.5715  -17.4293    0.0000 C   0  0
    7.9746  -15.9844    0.0000 C   0  0
    9.4274  -15.6111    0.0000 C   0  0
   10.4771  -16.6826    0.0000 C   0  0
    6.9249  -14.9130    0.0000 C   0  0
    7.3280  -13.4681    0.0000 N   0  0
    6.6813  -10.9518    0.0000 C   0  0
    5.6316   -9.8803    0.0000 C   0  0
    8.1341  -10.5785    0.0000 C   0  0
    6.2783  -12.3966    0.0000 C   0  0
    6.0347   -8.4355    0.0000 C   0  0
    8.5372   -9.1336    0.0000 C   0  0
    4.8255  -12.7700    0.0000 O   0  0
    7.4875   -8.0622    0.0000 C   0  0
    7.8906   -6.6173    0.0000 O   0  0
    9.3434   -6.2440    0.0000 C   0  0
  1  6  1  0
 10 12  2  0
 10 13  2  0
  6  7  1  0
 11 14  2  0
  2  3  1  0
 14 15  1  0
  6  8  1  0
 15 16  2  0
  3  4  2  0
 16 17  1  0
  4  9  1  0
 17 18  2  0
 18 11  1  0
  4  5  1  0
 16 19  1  0
 19 20  1  0
  5  1  1  0
  9 10  1  0
  1  2  2  0
 10 11  1  0
 21 22  2  0
 21 23  1  0
 21 24  1  0
 22 25  1  0
 23 26  2  0
 24 27  2  0
 25 28  2  0
 28 29  1  0
 29 30  1  0
 26 28  1  0
 20 24  1  0
M  END
>  <ID_NEW>
CPDPP3446

>  <pEC50>
5.394681563009429

$$$$

  -MTS-   10172316532D 0   0.00000     0.00000     0

 44 48  0  0  1  0  0  0  0  0999 V2000
   -4.0750    0.3790    0.0000 C   0  0  0  0  0  0  0  0  0  0  0  0
   -4.2040    0.8500    0.0000 C   0  0  2  0  0  0  0  0  0  0  0  0
   -4.6750    0.9770    0.0000 C   0  0  0  0  0  0  0  0  0  0  0  0
   -5.0200    0.6290    0.0000 C   0  0  0  0  0  0  0  0  0  0  0  0
   -4.8950    0.1540    0.0000 C   0  0  1  0  0  0  0  0  0  0  0  0
   -4.4170    0.0320    0.0000 C   0  0  0  0  0  0  0  0  0  0  0  0
   -5.2360   -0.1890    0.0000 C   0  0  0  0  0  0  0  0  0  0  0  0
   -3.8600    1.1980    0.0000 C   0  0  0  0  0  0  0  0  0  0  0  0
   -3.3780    1.1170    0.0000 N   0  0  0  0  0  0  0  0  0  0  0  0
   -3.1540    1.5580    0.0000 C   0  0  0  0  0  0  0  0  0  0  0  0
   -3.5020    1.8980    0.0000 C   0  0  0  0  0  0  0  0  0  0  0  0
   -3.9370    1.6790    0.0000 S   0  0  0  0  0  0  0  0  0  0  0  0
   -2.6750    1.6320    0.0000 C   0  0  0  0  0  0  0  0  0  0  0  0
   -3.4290    2.3830    0.0000 C   0  0  2  0  0  0  0  0  0  0  0  0
   -2.9710    2.5550    0.0000 O   0  0  0  0  0  0  0  0  0  0  0  0
   -3.8050    2.6880    0.0000 C   0  0  0  0  0  0  0  0  0  0  0  0
   -4.2630    2.5120    0.0000 C   0  0  0  0  0  0  0  0  0  0  0  0
   -2.5040    2.6870    0.0000 C   0  0  0  0  0  0  0  0  0  0  0  0
   -2.1560    2.3420    0.0000 C   0  0  0  0  0  0  0  0  0  0  0  0
   -1.6890    2.4740    0.0000 C   0  0  0  0  0  0  0  0  0  0  0  0
   -1.5670    2.9460    0.0000 C   0  0  0  0  0  0  0  0  0  0  0  0
   -1.9140    3.2860    0.0000 C   0  0  0  0  0  0  0  0  0  0  0  0
   -2.3820    3.1540    0.0000 C   0  0  0  0  0  0  0  0  0  0  0  0
   -1.0970    3.0770    0.0000 C   0  0  0  0  0  0  0  0  0  0  0  0
   -0.7490    2.7370    0.0000 N   0  0  0  0  0  0  0  0  0  0  0  0
   -0.9720    3.5470    0.0000 N   0  0  0  0  0  0  0  0  0  0  0  0
   -1.3380    2.1330    0.0000 O   0  0  0  0  0  0  0  0  0  0  0  0
   -1.4650    1.6590    0.0000 C   0  0  0  0  0  0  0  0  0  0  0  0
   -2.3660    1.2550    0.0000 N   0  0  0  0  0  0  0  0  0  0  0  0
   -2.5410    0.7990    0.0000 C   0  0  0  0  0  0  0  0  0  0  0  0
   -2.2370    0.4190    0.0000 C   0  0  0  0  0  0  0  0  0  0  0  0
   -1.7520    0.4970    0.0000 C   0  0  0  0  0  0  0  0  0  0  0  0
   -1.5780    0.9520    0.0000 C   0  0  0  0  0  0  0  0  0  0  0  0
   -1.8850    1.3300    0.0000 C   0  0  0  0  0  0  0  0  0  0  0  0
   -1.4460    0.1180    0.0000 C   0  0  0  0  0  0  0  0  0  0  0  0
   -1.6250   -0.3410    0.0000 F   0  0  0  0  0  0  0  0  0  0  0  0
   -0.9650    0.1920    0.0000 F   0  0  0  0  0  0  0  0  0  0  0  0
   -1.8940   -0.0790    0.0000 F   0  0  0  0  0  0  0  0  0  0  0  0
   -5.7080   -0.0640    0.0000 F   0  0  0  0  0  0  0  0  0  0  0  0
   -5.1080   -0.6600    0.0000 F   0  0  0  0  0  0  0  0  0  0  0  0
   -5.4810    0.2350    0.0000 F   0  0  0  0  0  0  0  0  0  0  0  0
   -0.4870    3.5500    0.0000 O   0  0  0  0  0  0  0  0  0  0  0  0
   -0.3290    2.9790    0.0000 C   0  0  0  0  0  0  0  0  0  0  0  0
    0.1040    2.9330    0.0000 O   0  0  0  0  0  0  0  0  0  0  0  0
  1  2  1  0  0  0  0
  1  6  1  0  0  0  0
  2  3  1  0  0  0  0
  3  4  1  0  0  0  0
  4  5  1  0  0  0  0
  5  6  1  0  0  0  0
  5  7  1  1  0  0  0
  2  8  1  6  0  0  0
  8  9  2  0  0  0  0
  9 10  1  0  0  0  0
 10 11  2  0  0  0  0
 11 12  1  0  0  0  0
 12  8  1  0  0  0  0
 10 13  1  0  0  0  0
 11 14  1  0  0  0  0
 14 15  1  0  0  0  0
 14 16  1  1  0  0  0
 16 17  1  0  0  0  0
 15 18  1  0  0  0  0
 18 19  2  0  0  0  0
 19 20  1  0  0  0  0
 20 21  2  0  0  0  0
 21 22  1  0  0  0  0
 22 23  2  0  0  0  0
 23 18  1  0  0  0  0
 21 24  1  0  0  0  0
 24 25  1  0  0  0  0
 24 26  2  0  0  0  0
 20 27  1  0  0  0  0
 27 28  1  0  0  0  0
 13 29  1  0  0  0  0
 29 30  1  0  0  0  0
 29 34  1  0  0  0  0
 30 31  1  0  0  0  0
 31 32  1  0  0  0  0
 32 33  1  0  0  0  0
 33 34  1  0  0  0  0
 32 35  1  0  0  0  0
 35 36  1  0  0  0  0
 35 37  1  0  0  0  0
 35 38  1  0  0  0  0
  7 39  1  0  0  0  0
  7 40  1  0  0  0  0
  7 41  1  0  0  0  0
 26 42  1  0  0  0  0
 25 43  1  0  0  0  0
 43 44  2  0  0  0  0
 43 42  1  0  0  0  0
M  END
>  <ID_NEW>
CPDPP3447

>  <pEC50>
5.394623164809242

$$$$

  SciTegic12180813012D

 31 33  0  0  0  0            999 V2000
    1.8725    3.1206    0.0000 C   0  0
    0.4197    2.7472    0.0000 C   0  0
    0.0166    1.3024    0.0000 C   0  0
    1.0663    0.2309    0.0000 C   0  0
    2.5191    0.6042    0.0000 C   0  0
    2.9222    2.0491    0.0000 C   0  0
   -0.6301    3.8187    0.0000 C   0  0
    3.5688   -0.4672    0.0000 S   0  0
   -2.0829    3.4454    0.0000 C   0  0
   -3.1326    4.5169    0.0000 N   0  0
    4.4165   -1.7047    0.0000 O   0  0
    2.4099   -1.4196    0.0000 O   0  0
    4.8755    0.2694    0.0000 N   0  0
    6.1668   -0.4939    0.0000 C   0  0
    6.3083   -1.9872    0.0000 N   0  0
    7.7722   -2.3141    0.0000 N   0  0
    8.5355   -1.0228    0.0000 C   0  0
    7.5433    0.1021    0.0000 S   0  0
   10.0288   -0.8814    0.0000 C   0  0
   10.6529    0.4826    0.0000 C   0  0
   10.8980   -2.1039    0.0000 C   0  0
   -5.6351    5.2150    0.0000 C   0  0
   -5.2320    6.6598    0.0000 C   0  0
   -7.0879    4.8416    0.0000 C   0  0
   -4.5854    4.1435    0.0000 C   0  0
   -6.2818    7.7313    0.0000 C   0  0
   -8.1376    5.9131    0.0000 C   0  0
   -4.9884    2.6987    0.0000 O   0  0
   -7.7346    7.3580    0.0000 C   0  0
   -5.8787    9.1761    0.0000 C   0  0
   -9.5904    5.5398    0.0000 C   0  0
  5  8  1  0
  7  9  1  0
  9 10  1  0
  8 11  2  0
  8 12  2  0
  8 13  1  0
 13 14  1  0
 14 15  2  0
 15 16  1  0
 16 17  2  0
 17 18  1  0
 18 14  1  0
 17 19  1  0
 19 20  1  0
 19 21  1  0
  1  2  2  0
  2  3  1  0
  3  4  2  0
  4  5  1  0
  5  6  2  0
  6  1  1  0
  2  7  1  0
 22 23  1  0
 22 24  2  0
 22 25  1  0
 23 26  2  0
 24 27  1  0
 25 28  2  0
 26 29  1  0
 26 30  1  0
 27 31  1  0
 27 29  2  0
 10 25  1  0
M  END
>  <ID_NEW>
CPDPP3448

>  <pEC50>
5.381206613542724

$$$$

  SciTegic12180813012D

 31 33  0  0  0  0            999 V2000
   -4.8556    2.5500    0.0000 C   0  0
   -4.8568    1.7227    0.0000 C   0  0
   -4.1419    1.3098    0.0000 C   0  0
   -4.1437    2.9628    0.0000 C   0  0
   -3.4284    2.5537    0.0000 C   0  0
   -3.4291    1.7210    0.0000 C   0  0
   -2.7056    1.3037    0.0000 N   0  0
   -1.9842    2.5595    0.0000 N   0  0
   -2.7082    2.9731    0.0000 C   0  0
   -5.5757    1.2982    0.0000 Cl  0  0
   -2.7086    3.7981    0.0000 O   0  0
   -1.9831    1.7360    0.0000 C   0  0
   -1.2678    1.3209    0.0000 C   0  0
   -1.2667    0.4932    0.0000 C   0  0
   -1.9874    0.0805    0.0000 C   0  0
   -1.9868   -0.7478    0.0000 C   0  0
   -1.2673   -1.1594    0.0000 C   0  0
   -0.5543   -0.7486    0.0000 C   0  0
   -0.5561    0.0816    0.0000 C   0  0
   -1.2621   -1.9848    0.0000 S   0  0
   -2.0844   -1.9927    0.0000 O   0  0
   -0.4358   -1.9791    0.0000 O   0  0
   -1.2550   -2.8073    0.0000 N   0  0
   -1.9637   -3.2295    0.0000 C   0  0
   -2.7190   -2.9060    0.0000 N   0  0
   -3.2626   -3.5266    0.0000 N   0  0
   -2.8403   -4.2354    0.0000 C   0  0
   -2.0358   -4.0527    0.0000 S   0  0
   -3.1655   -4.9936    0.0000 C   0  0
   -3.9847   -5.0912    0.0000 C   0  0
   -2.6714   -5.6543    0.0000 C   0  0
  8  9  1  0
  2 10  1  0
  9 11  2  0
  8 12  1  0
 12 13  1  0
 13 14  1  0
 14 15  2  0
 15 16  1  0
 16 17  2  0
 17 18  1  0
 18 19  2  0
 19 14  1  0
  1  2  2  0
 20 23  1  0
 20 21  2  0
 20 22  2  0
 17 20  1  0
  2  3  1  0
  3  6  2  0
  5  4  2  0
  4  1  1  0
  5  6  1  0
  5  9  1  0
  6  7  1  0
 23 24  1  0
 24 25  2  0
 25 26  1  0
 26 27  2  0
 27 28  1  0
 28 24  1  0
 27 29  1  0
 29 30  1  0
 29 31  1  0
M  END
>  <ID_NEW>
CPDPP3449

>  <pEC50>
5.379927031051847

$$$$

  SciTegic12180812592D

 32 35  0  0  0  0            999 V2000
  -11.0310  -12.6888    0.0000 C   0  0
  -11.0176  -14.1887    0.0000 C   0  0
   -9.7119  -14.9271    0.0000 C   0  0
   -8.4196  -14.1655    0.0000 C   0  0
   -8.4330  -12.6656    0.0000 C   0  0
   -9.7387  -11.9272    0.0000 C   0  0
  -12.3366  -11.9504    0.0000 Cl  0  0
   -7.1139  -14.9039    0.0000 O   0  0
   -7.1407  -11.9040    0.0000 C   0  0
   -5.8350  -12.6424    0.0000 N   0  0
   -7.1541  -10.4041    0.0000 O   0  0
   -4.5427  -11.8808    0.0000 C   0  0
   -3.2370  -12.6192    0.0000 C   0  0
   -1.9447  -11.8576    0.0000 C   0  0
   -0.6391  -12.5960    0.0000 C   0  0
    0.6532  -11.8344    0.0000 C   0  0
    0.6398  -10.3345    0.0000 C   0  0
   -0.6659   -9.5961    0.0000 C   0  0
   -1.9581  -10.3577    0.0000 C   0  0
    1.9321   -9.5729    0.0000 S   0  0
    3.3370   -9.0473    0.0000 O   0  0
    2.5782  -10.9266    0.0000 O   0  0
   -7.1005  -16.4038    0.0000 C   0  0
    3.8860   -3.4016    0.0000 C   0  0
    3.6646   -4.8852    0.0000 C   0  0
    4.8196   -2.2275    0.0000 C   0  0
    3.3360   -2.0061    0.0000 C   0  0
    2.3342   -5.5781    0.0000 S   0  0
    4.7347   -5.9363    0.0000 N   0  0
    2.5821   -7.0574    0.0000 C   0  0
    4.0657   -7.2789    0.0000 N   0  0
    1.5310   -8.1275    0.0000 N   0  0
 10 12  1  0
  6  1  1  0
 12 13  1  0
  1  2  2  0
 13 14  1  0
  1  7  1  0
 14 15  2  0
  3  4  2  0
 15 16  1  0
  4  8  1  0
 16 17  2  0
 17 18  1  0
  5  9  1  0
 18 19  2  0
 19 14  1  0
  4  5  1  0
 17 20  1  0
  9 10  1  0
 20 21  2  0
  2  3  1  0
 20 22  2  0
  9 11  2  0
  5  6  2  0
  8 23  1  0
 24 25  1  0
 24 26  1  0
 24 27  1  0
 25 28  1  0
 25 29  2  0
 28 30  1  0
 29 31  1  0
 30 32  1  0
 26 27  1  0
 30 31  2  0
 20 32  1  0
M  END
>  <ID_NEW>
CPDPP3450

>  <pEC50>
5.373352425546454

$$$$

  -MTS-   10172316532D 0   0.00000     0.00000     0

 37 40  0  0  0  0  0  0  0  0999 V2000
   -4.5400    2.6360    0.0000 C   0  0  0  0  0  0  0  0  0  0  0  0
   -4.6700    1.8240    0.0000 C   0  0  0  0  0  0  0  0  0  0  0  0
   -3.7680    2.9340    0.0000 C   0  0  0  0  0  0  0  0  0  0  0  0
   -4.0250    1.3030    0.0000 C   0  0  0  0  0  0  0  0  0  0  0  0
   -3.1230    2.4110    0.0000 C   0  0  0  0  0  0  0  0  0  0  0  0
   -3.2570    1.5920    0.0000 C   0  0  0  0  0  0  0  0  0  0  0  0
   -4.1530    0.4790    0.0000 O   0  0  0  0  0  0  0  0  0  0  0  0
   -2.6120    1.0770    0.0000 C   0  0  0  0  0  0  0  0  0  0  0  0
   -2.7380    0.2600    0.0000 O   0  0  0  0  0  0  0  0  0  0  0  0
   -5.1840    3.1510    0.0000 C   0  0  0  0  0  0  0  0  0  0  0  0
   -4.9290    0.1760    0.0000 C   0  0  0  0  0  0  0  0  0  0  0  0
   -5.0540   -0.6380    0.0000 C   0  0  0  0  0  0  0  0  0  0  0  0
   -5.8300    3.6660    0.0000 F   0  0  0  0  0  0  0  0  0  0  0  0
   -4.6700    3.7980    0.0000 F   0  0  0  0  0  0  0  0  0  0  0  0
   -5.6980    2.5070    0.0000 F   0  0  0  0  0  0  0  0  0  0  0  0
    3.1850    1.7770    0.0000 N   0  0  0  0  0  0  0  0  0  0  0  0
    3.9270    1.4140    0.0000 C   0  0  0  0  0  0  0  0  0  0  0  0
    4.1590    0.6140    0.0000 N   0  0  0  0  0  0  0  0  0  0  0  0
    4.9840    0.5870    0.0000 N   0  0  0  0  0  0  0  0  0  0  0  0
    5.2690    1.3560    0.0000 C   0  0  0  0  0  0  0  0  0  0  0  0
    4.6170    1.8730    0.0000 S   0  0  0  0  0  0  0  0  0  0  0  0
    6.0700    1.5810    0.0000 C   0  0  0  0  0  0  0  0  0  0  0  0
    6.6520    1.0010    0.0000 C   0  0  0  0  0  0  0  0  0  0  0  0
    6.2820    2.3700    0.0000 C   0  0  0  0  0  0  0  0  0  0  0  0
    1.7280    1.2280    0.0000 C   0  0  0  0  0  0  0  0  0  0  0  0
    1.7510    2.0550    0.0000 C   0  0  0  0  0  0  0  0  0  0  0  0
    1.0480    2.4870    0.0000 C   0  0  0  0  0  0  0  0  0  0  0  0
    0.3210    2.0930    0.0000 C   0  0  0  0  0  0  0  0  0  0  0  0
    0.3010    1.2630    0.0000 C   0  0  0  0  0  0  0  0  0  0  0  0
    1.0050    0.8340    0.0000 C   0  0  0  0  0  0  0  0  0  0  0  0
   -1.8410    1.3750    0.0000 N   0  0  0  0  0  0  0  0  0  0  0  0
    2.4790    2.4480    0.0000 S   0  0  0  0  0  0  0  0  0  0  0  0
    3.0150    3.1720    0.0000 O   0  0  0  0  0  0  0  0  0  0  0  0
    1.8320    3.1440    0.0000 O   0  0  0  0  0  0  0  0  0  0  0  0
   -0.4270    0.8640    0.0000 C   0  0  2  0  0  0  0  0  0  0  0  0
   -1.2440    0.9840    0.0000 C   0  0  2  0  0  0  0  0  0  0  0  0
   -0.9390    0.2170    0.0000 C   0  0  0  0  0  0  0  0  0  0  0  0
 17 18  2  0  0  0  0
 18 19  1  0  0  0  0
 19 20  2  0  0  0  0
 35 29  1  1  0  0  0
 36 31  1  6  0  0  0
 26 32  1  0  0  0  0
 32 16  1  0  0  0  0
 32 33  2  0  0  0  0
 32 34  2  0  0  0  0
 36 35  1  0  0  0  0
 37 36  1  0  0  0  0
 35 37  1  0  0  0  0
 25 26  2  0  0  0  0
 26 27  1  0  0  0  0
 27 28  2  0  0  0  0
 28 29  1  0  0  0  0
 29 30  2  0  0  0  0
 30 25  1  0  0  0  0
 20 21  1  0  0  0  0
 21 17  1  0  0  0  0
 20 22  1  0  0  0  0
 22 23  1  0  0  0  0
 22 24  1  0  0  0  0
 16 17  1  0  0  0  0
 10 15  1  0  0  0  0
  8  9  2  0  0  0  0
  5  6  1  0  0  0  0
  1 10  1  0  0  0  0
  1  2  2  0  0  0  0
  1  3  1  0  0  0  0
  2  4  1  0  0  0  0
  3  5  2  0  0  0  0
  4  6  2  0  0  0  0
  4  7  1  0  0  0  0
  6  8  1  0  0  0  0
  7 11  1  0  0  0  0
 11 12  1  0  0  0  0
 10 13  1  0  0  0  0
 10 14  1  0  0  0  0
 31  8  1  0  0  0  0
V   35 M1
V   36 M1
M  END
>  <ID_NEW>
CPDPP3451

>  <pEC50>
5.359113037906015

$$$$

  SciTegic12180813022D

 33 36  0  0  0  0            999 V2000
   -4.8556    1.3917    0.0000 C   0  0
   -4.8568    0.5644    0.0000 C   0  0
   -4.1419    0.1515    0.0000 C   0  0
   -4.1437    1.8045    0.0000 C   0  0
   -3.4284    1.3954    0.0000 C   0  0
   -3.4291    0.5627    0.0000 C   0  0
   -1.9908    1.4072    0.0000 N   0  0
   -2.7082    1.8148    0.0000 C   0  0
   -5.5757    0.1399    0.0000 Cl  0  0
   -2.7086    2.6398    0.0000 O   0  0
   -1.2743    1.8200    0.0000 C   0  0
   -0.5605    1.4173    0.0000 C   0  0
    0.1533    1.8359    0.0000 C   0  0
    0.1499    2.6630    0.0000 C   0  0
    0.8641    3.0822    0.0000 C   0  0
    1.5800    2.6724    0.0000 C   0  0
    1.5849    1.8508    0.0000 C   0  0
    0.8718    1.4297    0.0000 C   0  0
    2.2987    3.0836    0.0000 S   0  0
    3.0112    3.4959    0.0000 N   0  0
    1.8852    3.7986    0.0000 O   0  0
    2.7082    2.3707    0.0000 O   0  0
   -1.9591    0.6447    0.0000 C   0  0
   -2.6723    0.2300    0.0000 N   0  0
   -1.2356    0.2482    0.0000 O   0  0
    3.7261    3.0841    0.0000 C   0  0
    3.8167    2.2653    0.0000 S   0  0
    4.6239    2.0946    0.0000 C   0  0
    5.0357    2.8095    0.0000 N   0  0
    4.4830    3.4220    0.0000 N   0  0
    4.9602    1.3413    0.0000 C   0  0
    4.4759    0.6733    0.0000 C   0  0
    5.7807    1.2558    0.0000 C   0  0
  7  8  1  0
  2  9  1  0
  8 10  2  0
  7 11  1  0
 11 12  1  0
 12 13  1  0
 13 14  2  0
 14 15  1  0
 15 16  2  0
 16 17  1  0
 17 18  2  0
 18 13  1  0
  1  2  2  0
 19 20  1  0
 19 21  2  0
 19 22  2  0
 16 19  1  0
  2  3  1  0
  3  6  2  0
  5  4  2  0
  4  1  1  0
  5  6  1  0
  5  8  1  0
  6 24  1  0
  7 23  1  0
 23 24  1  0
 23 25  2  0
 20 26  1  0
 26 27  1  0
 27 28  1  0
 28 29  2  0
 29 30  1  0
 30 26  2  0
 28 31  1  0
 31 32  1  0
 31 33  1  0
M  END
>  <ID_NEW>
CPDPP3452

>  <pEC50>
5.3550022728525075

$$$$

  SciTegic12180813072D

 37 40  0  0  0  0            999 V2000
   -4.1990    1.5319    0.0000 C   0  0
   -4.1967    2.6128    0.0000 C   0  0
   -3.5704    1.5325    0.0000 C   0  0
   -3.5692    2.6154    0.0000 C   0  0
   -3.2566    2.0672    0.0000 C   0  0
   -3.2533    0.9830    0.0000 C   0  0
   -2.6285    2.0682    0.0000 C   0  0
   -2.3128    1.5307    0.0000 O   0  0
    1.4476    3.5538    0.0000 N   0  0
    1.9853    3.2407    0.0000 C   0  0
    2.1197    2.6219    0.0000 N   0  0
    2.7403    2.5541    0.0000 N   0  0
    2.9991    3.1168    0.0000 C   0  0
    2.5369    3.5470    0.0000 S   0  0
   -0.7292    2.9254    0.0000 C   0  0
   -0.7292    2.3005    0.0000 C   0  0
   -1.3211    3.1186    0.0000 C   0  0
   -0.1892    3.2448    0.0000 C   0  0
   -1.3247    2.1108    0.0000 C   0  0
   -0.1913    1.9887    0.0000 C   0  0
   -1.6884    2.6126    0.0000 C   0  0
    0.3509    2.9266    0.0000 C   0  0
    0.3535    2.3026    0.0000 C   0  0
   -2.3138    2.6111    0.0000 N   0  0
    0.9037    3.2451    0.0000 S   0  0
    1.2152    2.6925    0.0000 O   0  0
    0.5872    3.7844    0.0000 O   0  0
    3.6119    3.2409    0.0000 C   0  0
    4.0237    2.7697    0.0000 C   0  0
    3.8130    3.8320    0.0000 C   0  0
   -5.1373    2.0671    0.0000 S   0  0
   -5.5760    2.5998    0.0000 F   0  0
   -4.8271    1.4240    0.0000 F   0  0
   -5.8331    1.9807    0.0000 F   0  0
   -5.4369    1.4244    0.0000 F   0  0
   -4.9451    2.6611    0.0000 F   0  0
   -4.5113    2.0693    0.0000 C   0  0
 25  9  1  0
 25 26  2  0
 25 27  2  0
 22 25  1  0
  9 10  1  0
 10 11  2  0
 11 12  1  0
 12 13  2  0
 13 14  1  0
 14 10  1  0
 15 16  2  0
 15 17  1  0
 15 18  1  0
 16 19  1  0
 16 20  1  0
 17 21  1  0
 18 22  2  0
 20 23  2  0
 21 24  1  0
 19 21  1  0
 22 23  1  0
  7  8  2  0
  4  5  1  0
 37  1  2  0
 37  2  1  0
  1  3  1  0
  2  4  2  0
  3  5  2  0
  3  6  1  0
  5  7  1  0
 24  7  1  0
 13 28  1  0
 28 29  1  0
 28 30  1  0
 37 31  1  0
 31 32  1  0
 31 33  1  0
 31 34  1  0
 31 35  1  0
 31 36  1  0
M  END
>  <ID_NEW>
CPDPP3453

>  <pEC50>
5.3509398373286166

$$$$

  -MTS-   10172316532D 0   0.00000     0.00000     0

 38 42  0  0  1  0  0  0  0  0999 V2000
   -3.7300    0.7040    0.0000 C   0  0  0  0  0  0  0  0  0  0  0  0
   -3.7320   -0.0360    0.0000 C   0  0  2  0  0  0  0  0  0  0  0  0
   -3.0920   -0.3980    0.0000 C   0  0  0  0  0  0  0  0  0  0  0  0
   -2.4590   -0.0350    0.0000 C   0  0  0  0  0  0  0  0  0  0  0  0
   -2.4620    0.7080    0.0000 C   0  0  1  0  0  0  0  0  0  0  0  0
   -3.0940    1.0670    0.0000 C   0  0  0  0  0  0  0  0  0  0  0  0
   -1.8280    1.0690    0.0000 C   0  0  0  0  0  0  0  0  0  0  0  0
   -1.1600    0.7820    0.0000 N   0  0  0  0  0  0  0  0  0  0  0  0
   -0.6760    1.3270    0.0000 C   0  0  0  0  0  0  0  0  0  0  0  0
   -1.0510    1.9490    0.0000 C   0  0  0  0  0  0  0  0  0  0  0  0
   -1.7580    1.7970    0.0000 S   0  0  0  0  0  0  0  0  0  0  0  0
    0.0400    1.2450    0.0000 C   0  0  0  0  0  0  0  0  0  0  0  0
   -0.7540    2.6290    0.0000 C   0  0  2  0  0  0  0  0  0  0  0  0
   -4.3590   -0.3970    0.0000 C   0  0  0  0  0  0  0  0  0  0  0  0
   -4.3600   -1.1310    0.0000 F   0  0  0  0  0  0  0  0  0  0  0  0
   -4.9860   -0.0340    0.0000 F   0  0  0  0  0  0  0  0  0  0  0  0
   -3.6580   -0.5820    0.0000 F   0  0  0  0  0  0  0  0  0  0  0  0
   -0.0300    2.7010    0.0000 O   0  0  0  0  0  0  0  0  0  0  0  0
   -1.1860    3.2090    0.0000 C   0  0  0  0  0  0  0  0  0  0  0  0
    0.8280    2.6320    0.0000 C   0  0  0  0  0  0  0  0  0  0  0  0
    1.0310    1.8640    0.0000 C   0  0  0  0  0  0  0  0  0  0  0  0
    1.7860    1.6500    0.0000 C   0  0  0  0  0  0  0  0  0  0  0  0
    2.1600    2.9680    0.0000 C   0  0  0  0  0  0  0  0  0  0  0  0
    1.4010    3.1760    0.0000 C   0  0  0  0  0  0  0  0  0  0  0  0
    2.3480    2.2080    0.0000 C   0  0  0  0  0  0  0  0  0  0  0  0
    2.7220    3.5170    0.0000 Cl  0  0  0  0  0  0  0  0  0  0  0  0
    3.0990    1.9900    0.0000 C   0  0  0  0  0  0  0  0  0  0  0  0
   -1.9090    3.1280    0.0000 C   0  0  0  0  0  0  0  0  0  0  0  0
   -2.3540    3.7070    0.0000 C   0  0  0  0  0  0  0  0  0  0  0  0
   -3.0680    3.6220    0.0000 C   0  0  0  0  0  0  0  0  0  0  0  0
   -3.3580    2.9540    0.0000 C   0  0  0  0  0  0  0  0  0  0  0  0
   -2.9120    2.3660    0.0000 C   0  0  0  0  0  0  0  0  0  0  0  0
   -2.1910    2.4630    0.0000 C   0  0  0  0  0  0  0  0  0  0  0  0
    3.3680    1.2530    0.0000 N   0  0  0  0  0  0  0  0  0  0  0  0
    4.1550    1.2930    0.0000 O   0  0  0  0  0  0  0  0  0  0  0  0
    4.3560    2.0390    0.0000 C   0  0  0  0  0  0  0  0  0  0  0  0
    3.7050    2.4710    0.0000 N   0  0  0  0  0  0  0  0  0  0  0  0
    5.1080    2.2420    0.0000 O   0  0  0  0  0  0  0  0  0  0  0  0
  5  6  1  0  0  0  0
  7  8  2  0  0  0  0
  9 10  2  0  0  0  0
 10 11  1  0  0  0  0
 11  7  1  0  0  0  0
  6  1  1  0  0  0  0
 10 13  1  0  0  0  0
  1  2  1  0  0  0  0
  9 12  1  0  0  0  0
  2 14  1  6  0  0  0
 14 15  1  0  0  0  0
 14 16  1  0  0  0  0
 14 17  1  0  0  0  0
 13 18  1  0  0  0  0
 13 19  1  1  0  0  0
 20 21  2  0  0  0  0
 23 24  2  0  0  0  0
 24 20  1  0  0  0  0
 21 22  1  0  0  0  0
 22 25  2  0  0  0  0
 23 25  1  0  0  0  0
 23 26  1  0  0  0  0
 25 27  1  0  0  0  0
 18 20  1  0  0  0  0
 28 19  1  0  0  0  0
 28 29  2  0  0  0  0
 29 30  1  0  0  0  0
 30 31  2  0  0  0  0
 31 32  1  0  0  0  0
 32 33  2  0  0  0  0
 33 28  1  0  0  0  0
  3  4  1  0  0  0  0
 27 34  2  0  0  0  0
  5  7  1  1  0  0  0
  8  9  1  0  0  0  0
  4  5  1  0  0  0  0
 34 35  1  0  0  0  0
 35 36  1  0  0  0  0
 36 37  1  0  0  0  0
 37 27  1  0  0  0  0
  2  3  1  0  0  0  0
 36 38  2  0  0  0  0
M  END
>  <ID_NEW>
CPDPP3454

>  <pEC50>
5.3269987910812935

$$$$

  SciTegic12180813002D

 35 39  0  0  0  0            999 V2000
    0.5257    2.1464    0.0000 C   0  0
   -0.1925    2.5572    0.0000 C   0  0
   -0.9052    2.1407    0.0000 C   0  0
    0.5317    1.3235    0.0000 C   0  0
   -0.1963    3.3822    0.0000 C   0  0
    0.5162    3.7980    0.0000 F   0  0
   -0.9127    3.7914    0.0000 F   0  0
    0.6015    3.1723    0.0000 F   0  0
   -0.1781    0.9047    0.0000 C   0  0
   -0.8962    1.3138    0.0000 C   0  0
   -1.5072    0.7573    0.0000 S   0  0
   -1.1667    0.0042    0.0000 C   0  0
   -0.3454    0.0954    0.0000 N   0  0
   -3.9545    0.0108    0.0000 C   0  0
   -3.9560   -0.7392    0.0000 C   0  0
   -3.3079   -1.1109    0.0000 C   0  0
   -2.6583   -0.7366    0.0000 C   0  0
   -2.6609    0.0134    0.0000 C   0  0
   -3.3090    0.3892    0.0000 C   0  0
   -2.0019   -1.1041    0.0000 C   0  0
   -4.6109    0.3866    0.0000 C   0  0
   -3.3158    1.1392    0.0000 F   0  0
    0.5937   -1.0989    0.0000 N   0  0
    0.5952   -1.8427    0.0000 C   0  0
    1.2399   -0.7205    0.0000 C   0  0
   -0.0582   -0.7231    0.0000 C   0  0
    1.2471   -2.2169    0.0000 C   0  0
    1.8917   -1.0880    0.0000 C   0  0
   -0.7044   -1.1015    0.0000 C   0  0
   -1.3563   -0.7257    0.0000 N   0  0
   -4.6934    1.1367    0.0000 N   0  0
   -5.4338    1.2913    0.0000 C   0  0
   -5.8096    0.6349    0.0000 O   0  0
   -5.3014    0.0747    0.0000 N   0  0
   -5.7439    1.9812    0.0000 O   0  0
  1  2  2  0
  2  3  1  0
  3 10  2  0
  9  4  2  0
  4  1  1  0
  2  5  1  0
  5  6  1  0
  5  7  1  0
  5  8  1  0
  9 10  1  0
 10 11  1  0
 11 12  1  0
 12 13  2  0
 13  9  1  0
 17 18  1  0
 15 16  1  0
 19 22  1  0
 18 19  2  0
 19 14  1  0
 14 15  2  0
 17 20  1  0
 16 17  2  0
 14 21  1  0
 23 24  1  0
 23 25  1  0
 23 26  1  0
 24 27  1  0
 25 28  1  0
 26 29  1  0
 29 30  1  0
 20 30  1  0
 30 12  1  0
 21 31  1  0
 31 32  1  0
 32 33  1  0
 33 34  1  0
 34 21  2  0
 32 35  2  0
 27 28  1  0
M  END
>  <ID_NEW>
CPDPP3455

>  <pEC50>
5.306467843964334

$$$$

  SciTegic12180812332D

 31 33  0  0  0  0            999 V2000
   -3.5595    4.4775    0.0000 C   0  0
   -5.0123    4.1041    0.0000 N   0  0
   -1.0570    3.7793    0.0000 C   0  0
   -2.5098    3.4060    0.0000 C   0  0
   -2.9129    1.9612    0.0000 C   0  0
   -1.8632    0.8897    0.0000 C   0  0
   -0.4104    1.2630    0.0000 C   0  0
   -0.0073    2.7078    0.0000 C   0  0
    0.6393    0.1915    0.0000 S   0  0
    1.4870   -1.0460    0.0000 O   0  0
   -0.5196   -0.7608    0.0000 O   0  0
    1.9460    0.9281    0.0000 N   0  0
    3.2373    0.1649    0.0000 C   0  0
    3.3788   -1.3285    0.0000 N   0  0
    4.8427   -1.6554    0.0000 N   0  0
    5.6060   -0.3641    0.0000 C   0  0
    4.6138    0.7609    0.0000 S   0  0
    7.0993   -0.2226    0.0000 C   0  0
    7.7234    1.1414    0.0000 C   0  0
    7.9685   -1.4451    0.0000 C   0  0
   -7.5149    4.8023    0.0000 C   0  0
   -8.5646    5.8738    0.0000 C   0  0
   -7.9179    3.3574    0.0000 C   0  0
   -6.0621    5.1756    0.0000 C   0  0
  -10.0174    5.5004    0.0000 C   0  0
   -8.1615    7.3186    0.0000 O   0  0
   -9.3707    2.9841    0.0000 C   0  0
   -5.6590    6.6204    0.0000 O   0  0
  -10.4204    4.0556    0.0000 C   0  0
   -9.2112    8.3901    0.0000 C   0  0
   -9.7738    1.5393    0.0000 C   0  0
  1  2  1  0
  5  6  2  0
  6  7  1  0
  7  8  2  0
  8  3  1  0
  4  1  1  0
  7  9  1  0
  9 10  2  0
  9 11  2  0
  9 12  1  0
 12 13  1  0
 13 14  2  0
 14 15  1  0
 15 16  2  0
 16 17  1  0
 17 13  1  0
 16 18  1  0
 18 19  1  0
 18 20  1  0
  3  4  2  0
  4  5  1  0
 21 22  1  0
 21 23  2  0
 21 24  1  0
 22 25  2  0
 22 26  1  0
 23 27  1  0
 24 28  2  0
 25 29  1  0
 26 30  1  0
 27 31  1  0
 27 29  2  0
  2 24  1  0
M  END
>  <ID_NEW>
CPDPP3456

>  <pEC50>
5.289078425735825

$$$$

  SciTegic12180812562D

 35 38  0  0  0  0            999 V2000
    2.8080   -3.4683    0.0000 N   0  0
    2.8745   -2.6186    0.0000 C   0  0
    3.5943   -3.7953    0.0000 N   0  0
    4.1468   -3.1456    0.0000 C   0  0
    3.7036   -2.4173    0.0000 S   0  0
    4.9922   -3.2121    0.0000 C   0  0
    5.4784   -2.5045    0.0000 C   0  0
    5.3599   -3.9780    0.0000 C   0  0
    2.2290   -2.0661    0.0000 N   0  0
   -0.5090    0.4575    0.0000 O   0  0
   -0.0279   -0.2489    0.0000 C   0  0
    0.8215   -0.1800    0.0000 C   0  0
    1.3054   -0.8822    0.0000 C   0  0
    0.9398   -1.6533    0.0000 C   0  0
    0.0904   -1.7180    0.0000 C   0  0
   -0.3940   -1.0199    0.0000 C   0  0
    1.4238   -2.3513    0.0000 S   0  0
    0.6813   -2.7743    0.0000 O   0  0
    1.7760   -3.1283    0.0000 O   0  0
   -4.1369    3.1286    0.0000 C   0  0
   -4.5005    2.3575    0.0000 C   0  0
   -3.2905    3.1932    0.0000 O   0  0
   -4.6196    3.8307    0.0000 C   0  0
   -5.3511    2.2886    0.0000 C   0  0
   -4.0178    1.6552    0.0000 O   0  0
   -2.8078    2.4952    0.0000 C   0  0
   -5.4703    3.7618    0.0000 C   0  0
   -5.8297    2.9949    0.0000 C   0  0
   -4.3856    0.8884    0.0000 C   0  0
   -1.9573    2.5598    0.0000 C   0  0
   -3.1714    1.7241    0.0000 C   0  0
   -1.4744    1.8618    0.0000 C   0  0
   -2.6887    1.0220    0.0000 C   0  0
   -1.8381    1.0908    0.0000 C   0  0
   -1.3553    0.3886    0.0000 C   0  0
  1  2  2  0
  1  3  1  0
  3  4  2  0
  4  5  1  0
  5  2  1  0
  4  6  1  0
  6  7  1  0
  6  8  1  0
 10 11  1  0
 17 19  2  0
 17  9  1  0
 11 12  2  0
 12 13  1  0
 13 14  2  0
 14 15  1  0
 15 16  2  0
 16 11  1  0
 14 17  1  0
 17 18  2  0
 20 21  2  0
 20 22  1  0
 20 23  1  0
 21 24  1  0
 21 25  1  0
 22 26  1  0
 23 27  2  0
 24 28  2  0
 25 29  1  0
 26 30  2  0
 26 31  1  0
 30 32  1  0
 31 33  2  0
 32 34  2  0
 34 35  1  0
 27 28  1  0
 33 34  1  0
 10 35  1  0
  2  9  1  0
M  END
>  <ID_NEW>
CPDPP3457

>  <pEC50>
5.286023644490068

$$$$

  SciTegic12180813082D

 33 37  0  0  0  0            999 V2000
    1.6323    1.3852    0.0000 N   0  0
   -1.2335    0.5545    0.0000 C   0  0
   -1.2335   -0.2704    0.0000 C   0  0
   -2.0170    0.8102    0.0000 C   0  0
   -0.5226    0.9698    0.0000 C   0  0
   -2.0206   -0.5225    0.0000 C   0  0
   -0.5247   -0.6822    0.0000 C   0  0
   -2.5010    0.1376    0.0000 C   0  0
    0.1925    0.5557    0.0000 C   0  0
    0.1951   -0.2683    0.0000 C   0  0
   -3.3264    0.1361    0.0000 N   0  0
    0.9161    0.9701    0.0000 S   0  0
    1.3276    0.2467    0.0000 O   0  0
    0.5038    1.6885    0.0000 O   0  0
    2.3475    0.9739    0.0000 C   0  0
    2.4361    0.1555    0.0000 S   0  0
    3.2434   -0.0147    0.0000 C   0  0
    3.6547    0.7006    0.0000 N   0  0
    3.1016    1.3126    0.0000 N   0  0
    3.5802   -0.7678    0.0000 C   0  0
    3.4967   -1.5874    0.0000 C   0  0
    4.2498   -1.2506    0.0000 C   0  0
   -3.7402    0.8498    0.0000 C   0  0
   -3.3249    1.5637    0.0000 C   0  0
   -3.7381    2.2769    0.0000 C   0  0
   -4.5639    2.2758    0.0000 C   0  0
   -4.9750    1.5556    0.0000 C   0  0
   -4.5595    0.8453    0.0000 N   0  0
   -4.9806    2.9913    0.0000 C   0  0
   -5.3580    3.6402    0.0000 F   0  0
   -4.6767    3.7981    0.0000 F   0  0
   -5.8322    3.1262    0.0000 F   0  0
   -2.4999    1.5629    0.0000 Cl  0  0
 21 20  1  0
 22 21  1  0
 20 22  1  0
  2  3  2  0
  2  4  1  0
  2  5  1  0
  3  6  1  0
  3  7  1  0
  4  8  1  0
  5  9  2  0
  7 10  2  0
  8 11  1  0
  6  8  1  0
  9 10  1  0
 12  1  1  0
 12 13  2  0
 12 14  2  0
  9 12  1  0
  1 15  1  0
 15 16  1  0
 16 17  1  0
 17 18  2  0
 18 19  1  0
 19 15  2  0
 17 20  1  0
 11 23  1  0
 23 24  2  0
 24 25  1  0
 25 26  2  0
 26 27  1  0
 27 28  2  0
 28 23  1  0
 29 30  1  0
 29 31  1  0
 29 32  1  0
 26 29  1  0
 24 33  1  0
M  END
>  <ID_NEW>
CPDPP3458

>  <pEC50>
5.280586867596546

$$$$

  SciTegic12180813082D

 35 38  0  0  0  0            999 V2000
    3.4515    1.8300    0.0000 C   0  0
    4.2497    1.5975    0.0000 S   0  0
    2.9894    1.1493    0.0000 N   0  0
    3.5010    0.4958    0.0000 N   0  0
    4.2733    0.7874    0.0000 C   0  0
    4.9673    0.3297    0.0000 C   0  0
    5.7063    0.7028    0.0000 C   0  0
    4.9194   -0.4955    0.0000 C   0  0
    3.0862    2.5703    0.0000 N   0  0
    2.2555    2.6264    0.0000 S   0  0
    2.3113    3.4533    0.0000 O   0  0
    2.1985    1.7988    0.0000 O   0  0
    1.4270    2.6816    0.0000 C   0  0
    1.0678    3.4221    0.0000 C   0  0
    0.2436    3.4824    0.0000 C   0  0
    0.9630    1.9991    0.0000 C   0  0
    0.1437    2.0578    0.0000 C   0  0
   -0.2197    2.7974    0.0000 C   0  0
   -1.0193    2.9781    0.0000 C   0  0
   -0.2088    1.3170    0.0000 C   0  0
   -1.0073    1.1290    0.0000 C   0  0
   -1.6584    2.4628    0.0000 C   0  0
   -1.6540    1.6354    0.0000 C   0  0
   -2.3926    1.2685    0.0000 N   0  0
   -3.0770    1.7229    0.0000 C   0  0
   -3.0193    2.5424    0.0000 N   0  0
   -3.7031    3.0067    0.0000 C   0  0
   -4.4414    2.6446    0.0000 C   0  0
   -4.4995    1.8194    0.0000 C   0  0
   -3.8184    1.3576    0.0000 C   0  0
   -3.8801    0.5255    0.0000 Cl  0  0
   -5.1367    3.1060    0.0000 C   0  0
   -5.8308    3.5693    0.0000 F   0  0
   -4.6709    3.7999    0.0000 F   0  0
   -5.6002    2.4128    0.0000 F   0  0
 10 11  2  0
 10 12  2  0
 10 13  1  0
  9 10  1  0
 13 14  2  0
  3  1  2  0
  4  5  2  0
  5  6  1  0
 25 26  2  0
 26 27  1  0
 27 28  2  0
 28 29  1  0
 29 30  2  0
 30 25  1  0
 30 31  1  0
 32 33  1  0
 32 34  1  0
 32 35  1  0
 28 32  1  0
 24 25  1  0
  6  7  1  0
  6  8  1  0
  9  1  1  0
  1  2  1  0
  2  5  1  0
  4  3  1  0
 14 15  1  0
 15 18  2  0
 17 16  2  0
 16 13  1  0
 17 18  1  0
 17 20  1  0
 18 19  1  0
 19 22  1  0
 21 20  1  0
 23 22  1  0
 21 23  1  0
 23 24  1  0
M  END
>  <ID_NEW>
CPDPP3459

>  <pEC50>
5.27076772508099

$$$$

  SciTegic12180813012D

 38 42  0  0  0  0            999 V2000
   -0.7379   -2.4011    0.0000 C   0  0
   -0.2767   -1.7835    0.0000 C   0  0
   -0.5793   -1.0800    0.0000 C   0  0
   -1.4971   -2.3162    0.0000 C   0  0
   -1.8023   -1.6111    0.0000 C   0  0
   -1.3444   -0.9939    0.0000 C   0  0
   -1.7883   -0.3623    0.0000 S   0  0
   -2.5272   -0.5942    0.0000 C   0  0
   -2.5357   -1.3668    0.0000 N   0  0
    0.4843   -1.8709    0.0000 C   0  0
    0.7903   -2.5784    0.0000 F   0  0
    0.9435   -1.2549    0.0000 F   0  0
    0.2006   -2.5877    0.0000 F   0  0
   -3.1438   -0.1357    0.0000 N   0  0
   -2.4864    1.7863    0.0000 C   0  0
   -2.4844    1.0154    0.0000 C   0  0
   -1.8218    0.6303    0.0000 C   0  0
   -1.1571    1.0202    0.0000 C   0  0
   -1.1592    1.7869    0.0000 C   0  0
   -1.8259    2.1678    0.0000 C   0  0
   -0.4986    2.1684    0.0000 C   0  0
   -3.1491    0.6297    0.0000 C   0  0
   -1.8280    2.9345    0.0000 C   0  0
   -2.5732    3.1315    0.0000 F   0  0
   -1.6945    3.6944    0.0000 F   0  0
   -1.0584    2.8673    0.0000 F   0  0
   -3.8117   -0.5187    0.0000 C   0  0
    0.2048    1.8580    0.0000 N   0  0
    0.7184    2.4298    0.0000 O   0  0
    0.3326    3.0946    0.0000 C   0  0
   -0.4156    2.9356    0.0000 N   0  0
    0.6460    3.7984    0.0000 O   0  0
   -4.5241   -1.6979    0.0000 N   0  0
   -3.8096   -1.2854    0.0000 C   0  0
   -5.2796   -1.3666    0.0000 C   0  0
   -5.8316   -1.9797    0.0000 C   0  0
   -5.4191   -2.6942    0.0000 C   0  0
   -4.6122   -2.5226    0.0000 C   0  0
 34 27  1  0
 27 14  1  0
 22 14  1  0
 16 22  1  0
 20 23  1  0
 23 24  1  0
 23 25  1  0
  1  2  2  0
 10 12  1  0
 10 13  1  0
  2  3  1  0
  3  6  2  0
  6  7  1  0
  7  8  1  0
  8  9  2  0
  9  5  1  0
  5  4  2  0
  4  1  1  0
  2 10  1  0
  5  6  1  0
 10 11  1  0
  8 14  1  0
 23 26  1  0
 15 16  2  0
 16 17  1  0
 17 18  2  0
 18 19  1  0
 19 20  2  0
 20 15  1  0
 19 21  1  0
 21 28  2  0
 28 29  1  0
 29 30  1  0
 30 31  1  0
 31 21  1  0
 30 32  2  0
 33 34  1  0
 33 35  1  0
 35 36  1  0
 36 37  1  0
 37 38  1  0
 38 33  1  0
M  END
>  <ID_NEW>
CPDPP3460

>  <pEC50>
5.258554111182347

$$$$

  SciTegic12180812502D

 35 38  0  0  0  0            999 V2000
   -1.4813    1.4144    0.0000 O   0  0
   -1.4814    0.7894    0.0000 C   0  0
   -2.0227    0.4770    0.0000 C   0  0
   -2.8435    0.5163    0.0000 S   0  0
   -2.9677   -0.0644    0.0000 C   0  0
   -2.4962   -0.3390    0.0000 N   0  0
   -2.0200   -0.0696    0.0000 C   0  0
   -1.5467   -0.3440    0.0000 C   0  0
   -1.5477   -0.8912    0.0000 C   0  0
   -1.0743   -1.1657    0.0000 C   0  0
   -1.0754   -1.7128    0.0000 C   0  0
   -3.5720   -0.2238    0.0000 C   0  0
   -4.0126    0.2175    0.0000 C   0  0
   -4.6164    0.0585    0.0000 C   0  0
   -4.7811   -0.5451    0.0000 C   0  0
   -4.3371   -0.9897    0.0000 C   0  0
   -3.7350   -0.8283    0.0000 C   0  0
   -5.3898   -0.7053    0.0000 C   0  0
   -5.8323   -0.2622    0.0000 F   0  0
   -5.5515   -1.3086    0.0000 F   0  0
   -5.3914   -0.0803    0.0000 F   0  0
   -1.3250    2.0208    0.0000 C   0  0
   -0.4097    2.6334    0.0000 C   0  0
   -0.4109    2.0061    0.0000 C   0  0
    0.1331    1.6932    0.0000 C   0  0
    0.6746    2.0065    0.0000 C   0  0
    0.6717    2.6371    0.0000 C   0  0
    0.1313    2.9462    0.0000 C   0  0
    1.2116    2.9519    0.0000 C   0  0
    1.3667    3.5584    0.0000 O   0  0
    1.7105    2.5753    0.0000 N   0  0
    2.2860    2.8191    0.0000 N   0  0
    2.0250    3.5501    0.0000 C   0  0
    2.4314    4.0823    0.0000 O   0  0
    1.2167    1.6955    0.0000 F   0  0
  5  6  2  0
  6  7  1  0
  7  3  2  0
  4  5  1  0
  7  8  1  0
  8  9  1  0
  9 10  1  0
 10 11  1  0
  5 12  1  0
  1 22  1  0
 12 13  2  0
 13 14  1  0
 14 15  2  0
 15 16  1  0
 16 17  2  0
 17 12  1  0
 15 18  1  0
 18 19  1  0
 18 20  1  0
  1  2  1  0
 18 21  1  0
  2  3  1  0
  3  4  1  0
 23 24  2  0
 29 31  2  0
 31 32  1  0
 30 33  1  0
 33 32  1  0
 33 34  2  0
 26 35  1  0
 24 25  1  0
 25 26  2  0
 26 27  1  0
 27 28  2  0
 28 23  1  0
 27 29  1  0
 29 30  1  0
 22 24  1  0
M  END
>  <ID_NEW>
CPDPP3461

>  <pEC50>
5.246597207230626

$$$$

  SciTegic12180813012D

 39 43  0  0  0  0            999 V2000
   -0.7379   -2.4011    0.0000 C   0  0
   -0.2767   -1.7835    0.0000 C   0  0
   -0.5793   -1.0800    0.0000 C   0  0
   -1.4971   -2.3162    0.0000 C   0  0
   -1.8023   -1.6111    0.0000 C   0  0
   -1.3444   -0.9939    0.0000 C   0  0
   -1.7883   -0.3623    0.0000 S   0  0
   -2.5272   -0.5942    0.0000 C   0  0
   -2.5357   -1.3668    0.0000 N   0  0
    0.4843   -1.8709    0.0000 C   0  0
    0.7903   -2.5784    0.0000 F   0  0
    0.9435   -1.2549    0.0000 F   0  0
    0.2006   -2.5877    0.0000 F   0  0
   -3.1438   -0.1357    0.0000 N   0  0
   -2.4864    1.7863    0.0000 C   0  0
   -2.4844    1.0154    0.0000 C   0  0
   -1.8218    0.6303    0.0000 C   0  0
   -1.1571    1.0202    0.0000 C   0  0
   -1.1592    1.7869    0.0000 C   0  0
   -1.8259    2.1678    0.0000 C   0  0
   -0.4986    2.1684    0.0000 C   0  0
   -3.1491    0.6297    0.0000 C   0  0
   -1.8280    2.9345    0.0000 C   0  0
   -2.5732    3.1315    0.0000 F   0  0
   -1.6945    3.6944    0.0000 F   0  0
   -1.0584    2.8673    0.0000 F   0  0
   -3.8117   -0.5187    0.0000 C   0  0
    0.2048    1.8580    0.0000 N   0  0
    0.7184    2.4298    0.0000 O   0  0
    0.3326    3.0946    0.0000 C   0  0
   -0.4156    2.9356    0.0000 N   0  0
    0.6460    3.7984    0.0000 O   0  0
   -4.5241   -1.6979    0.0000 C   0  0
   -3.8096   -1.2854    0.0000 C   0  0
   -5.2796   -1.3666    0.0000 N   0  0
   -5.8316   -1.9797    0.0000 C   0  0
   -5.4191   -2.6942    0.0000 C   0  0
   -4.6122   -2.5226    0.0000 C   0  0
   -5.4534   -0.5601    0.0000 C   0  0
 34 27  1  0
 27 14  1  0
 22 14  1  0
 16 22  1  0
 20 23  1  0
 23 24  1  0
 23 25  1  0
  1  2  2  0
 10 12  1  0
 10 13  1  0
  2  3  1  0
  3  6  2  0
  6  7  1  0
  7  8  1  0
  8  9  2  0
  9  5  1  0
  5  4  2  0
  4  1  1  0
  2 10  1  0
  5  6  1  0
 10 11  1  0
  8 14  1  0
 23 26  1  0
 15 16  2  0
 16 17  1  0
 17 18  2  0
 18 19  1  0
 19 20  2  0
 20 15  1  0
 19 21  1  0
 21 28  2  0
 28 29  1  0
 29 30  1  0
 30 31  1  0
 31 21  1  0
 30 32  2  0
 33 34  1  0
 33 35  1  0
 35 36  1  0
 36 37  1  0
 37 38  1  0
 38 33  1  0
 35 39  1  0
M  END
>  <ID_NEW>
CPDPP3462

>  <pEC50>
5.23970566506453

$$$$

  SciTegic12180813002D

 34 37  0  0  0  0            999 V2000
   -2.0201  -15.4576    0.0000 C   0  0
   -0.7164  -16.1994    0.0000 C   0  0
    0.5779  -15.4413    0.0000 C   0  0
    0.5685  -13.9413    0.0000 C   0  0
   -0.7352  -13.1995    0.0000 C   0  0
   -2.0295  -13.9577    0.0000 C   0  0
  -11.1085  -16.2648    0.0000 C   0  0
  -11.0991  -17.7647    0.0000 C   0  0
   -9.7953  -18.5065    0.0000 C   0  0
   -8.5010  -17.7484    0.0000 C   0  0
   -8.5105  -16.2484    0.0000 C   0  0
   -9.8142  -15.5066    0.0000 C   0  0
  -12.4122  -15.5229    0.0000 Cl  0  0
   -7.1973  -18.4902    0.0000 C   0  0
   -7.2162  -15.4903    0.0000 C   0  0
   -5.9124  -16.2321    0.0000 N   0  0
   -4.6181  -15.4739    0.0000 C   0  0
   -3.3144  -16.2158    0.0000 C   0  0
    1.8628  -13.1832    0.0000 S   0  0
    3.2691  -12.6613    0.0000 O   0  0
    2.5052  -14.5386    0.0000 O   0  0
   -7.2256  -13.9903    0.0000 O   0  0
    3.8330   -7.0171    0.0000 C   0  0
    5.2300   -6.4707    0.0000 C   0  0
    5.4553   -4.9877    0.0000 C   0  0
    4.2837   -4.0511    0.0000 C   0  0
    2.8867   -4.5975    0.0000 C   0  0
    2.6614   -6.0804    0.0000 C   0  0
    4.0024  -10.8948    0.0000 N   0  0
    4.6750   -9.5540    0.0000 N   0  0
    3.6077   -8.5000    0.0000 C   0  0
    2.2755   -9.1894    0.0000 S   0  0
    2.5194  -10.6695    0.0000 C   0  0
    1.4655  -11.7368    0.0000 N   0  0
  2  3  1  0
 19 21  2  0
 10 11  1  0
  5  6  2  0
 15 22  2  0
 11 12  2  0
 12  7  1  0
  6  1  1  0
  7 13  1  0
  1  2  2  0
 10 14  1  0
  3  4  2  0
 11 15  1  0
  7  8  2  0
 15 16  1  0
 16 17  1  0
  8  9  1  0
 17 18  1  0
 18  1  1  0
  4  5  1  0
  4 19  1  0
  9 10  2  0
 19 20  2  0
 28 23  1  0
 23 24  2  0
 25 26  2  0
 26 27  1  0
 24 25  1  0
 27 28  2  0
 30 31  2  0
 31 32  1  0
 32 33  1  0
 33 29  2  0
 29 30  1  0
 33 34  1  0
 31 23  1  0
 19 34  1  0
M  END
>  <ID_NEW>
CPDPP3463

>  <pEC50>
5.234477781773078

$$$$

  SciTegic12180813072D

 29 32  0  0  0  0            999 V2000
    8.9747   -4.2530    0.0000 C   0  0
    7.8423   -6.1257    0.0000 C   0  0
    8.4809   -5.5968    0.0000 C   0  0
    8.3420   -4.7825    0.0000 C   0  0
    7.5646   -4.4971    0.0000 C   0  0
    6.9292   -5.0234    0.0000 C   0  0
    7.0681   -5.8377    0.0000 C   0  0
    6.4295   -6.3666    0.0000 S   0  0
    9.2551   -5.8849    0.0000 Cl  0  0
    7.0165   -6.9551    0.0000 O   0  0
    5.8973   -6.9942    0.0000 O   0  0
    2.3110   -4.3248    0.0000 C   0  0
    2.9790   -4.7995    0.0000 C   0  0
    3.7346   -4.4542    0.0000 C   0  0
    3.8088   -3.6346    0.0000 C   0  0
    3.1340   -3.1546    0.0000 C   0  0
    2.3784   -3.4999    0.0000 C   0  0
    4.4081   -4.9290    0.0000 N   0  0
    1.7083   -3.0162    0.0000 Cl  0  0
    4.3332   -5.7514    0.0000 C   0  0
    5.0027   -6.2343    0.0000 C   0  0
    5.7557   -5.8874    0.0000 N   0  0
    5.8326   -5.0686    0.0000 C   0  0
    5.1561   -4.5862    0.0000 C   0  0
    9.7746   -4.4535    0.0000 N   0  0
   10.2127   -3.7545    0.0000 O   0  0
    9.6832   -3.1217    0.0000 C   0  0
    8.9180   -3.4299    0.0000 N   0  0
    9.9623   -2.3464    0.0000 O   0  0
  8 10  2  0
  3  4  1  0
  8 11  2  0
  6  7  2  0
  7  2  1  0
  2  3  2  0
 12 13  2  0
 14 18  1  0
 14 15  2  0
 17 19  1  0
 18 20  1  0
 15 16  1  0
 13 14  1  0
 16 17  2  0
 17 12  1  0
 18 24  1  0
 20 21  1  0
 21 22  1  0
 22 23  1  0
 23 24  1  0
  8 22  1  0
  1  4  1  0
  1 25  2  0
  7  8  1  0
  4  5  2  0
  3  9  1  0
 25 26  1  0
 26 27  1  0
 27 28  1  0
 28  1  1  0
  5  6  1  0
 27 29  2  0
M  END
>  <ID_NEW>
CPDPP3464

>  <pEC50>
5.2290283944813565

$$$$

  SciTegic12180812342D

 35 38  0  0  0  0            999 V2000
    0.2409   -0.0352    0.0000 C   0  0
   -2.6941    0.9150    0.0000 C   0  0
   -2.9594    1.4734    0.0000 S   0  0
   -3.5702    1.4078    0.0000 C   0  0
   -3.6881    0.8048    0.0000 N   0  0
   -3.1546    0.5038    0.0000 C   0  0
   -3.9861    1.8587    0.0000 C   0  0
   -3.8004    2.4411    0.0000 C   0  0
   -4.2131    2.8953    0.0000 C   0  0
   -4.8204    2.7605    0.0000 C   0  0
   -4.9955    2.1703    0.0000 C   0  0
   -4.5838    1.7164    0.0000 C   0  0
   -5.2313    3.2076    0.0000 C   0  0
   -5.0491    3.7967    0.0000 F   0  0
   -5.8307    3.0750    0.0000 F   0  0
   -4.6890    3.4967    0.0000 F   0  0
   -3.0858   -0.1065    0.0000 C   0  0
   -3.5782   -0.4742    0.0000 C   0  0
   -3.5077   -1.0878    0.0000 C   0  0
   -3.6974   -1.6674    0.0000 C   0  0
   -2.0328    0.8315    0.0000 C   0  0
   -0.6864    0.6680    0.0000 C   0  0
   -1.1013    0.1244    0.0000 C   0  0
   -0.8376   -0.4977    0.0000 C   0  0
   -0.1636   -0.5771    0.0000 C   0  0
   -0.0230    0.5875    0.0000 C   0  0
   -1.7699    0.2098    0.0000 O   0  0
    0.3837    1.1275    0.0000 C   0  0
    1.0555    1.0452    0.0000 C   0  0
    1.3876    1.6291    0.0000 C   0  0
    2.0591    1.7051    0.0000 N   0  0
    2.1948    2.3644    0.0000 N   0  0
    1.6067    2.6965    0.0000 C   0  0
    1.1101    2.2450    0.0000 O   0  0
    1.5349    3.3681    0.0000 O   0  0
 10 11  1  0
 11 12  2  0
 12  7  1  0
 10 13  1  0
  2  3  1  0
 13 14  1  0
 13 15  1  0
 13 16  1  0
  6 17  1  0
 17 18  1  0
  3  4  1  0
 18 19  1  0
  4  5  2  0
 19 20  1  0
  5  6  1  0
  6  2  2  0
 22 23  2  0
  4  7  1  0
 23 24  1  0
 24 25  2  0
 25  1  1  0
  7  8  2  0
  1 26  2  0
 26 22  1  0
 23 27  1  0
 27 21  1  0
 21  2  1  0
  8  9  1  0
  9 10  2  0
 26 28  1  0
 28 29  1  0
 29 30  1  0
 30 31  2  0
 32 33  1  0
 34 30  1  0
 33 35  2  0
 34 33  1  0
 32 31  1  0
M  END
>  <ID_NEW>
CPDPP3465

>  <pEC50>
5.196869656999237

$$$$

  SciTegic12180813062D

 31 34  0  0  0  0            999 V2000
   13.6091   -3.2002    0.0000 C   0  0
   12.7592   -1.9643    0.0000 C   0  0
   15.1086   -3.2390    0.0000 C   0  0
   12.6963   -4.3905    0.0000 S   0  0
   11.3210   -2.3907    0.0000 N   0  0
   13.2595   -0.5502    0.0000 C   0  0
   15.8247   -4.5571    0.0000 O   0  0
   11.2822   -3.8902    0.0000 C   0  0
   17.3242   -4.5959    0.0000 C   0  0
   18.0404   -5.9139    0.0000 C   0  0
   19.5399   -5.9527    0.0000 C   0  0
   20.3232   -4.6735    0.0000 C   0  0
   19.6071   -3.3555    0.0000 C   0  0
   18.1076   -3.3167    0.0000 C   0  0
   21.8227   -4.7124    0.0000 C   0  0
   20.3905   -2.0763    0.0000 Cl  0  0
   22.6727   -5.9483    0.0000 N   0  0
   24.1108   -5.5219    0.0000 C   0  0
   24.1496   -4.0224    0.0000 O   0  0
   22.7355   -3.5221    0.0000 N   0  0
   25.3011   -6.4347    0.0000 O   0  0
   10.1644   -6.2355    0.0000 C   0  0
   10.0463   -4.7402    0.0000 C   0  0
   11.5185   -6.8809    0.0000 C   0  0
    8.9284   -7.0855    0.0000 C   0  0
    8.6922   -4.0948    0.0000 C   0  0
   11.2455   -8.3558    0.0000 F   0  0
   12.0434   -5.4757    0.0000 F   0  0
   12.9640   -7.2813    0.0000 F   0  0
    7.5744   -6.4401    0.0000 C   0  0
    7.4563   -4.9447    0.0000 C   0  0
 10 11  1  0
 11 12  2  0
 12 13  1  0
 13 14  2  0
 14  9  1  0
 12 15  1  0
 13 16  1  0
 15 17  2  0
 17 18  1  0
 18 19  1  0
 19 20  1  0
 20 15  1  0
 18 21  2  0
  1  2  2  0
  1  3  1  0
  1  4  1  0
  2  5  1  0
  2  6  1  0
  3  7  1  0
  4  8  1  0
  5  8  2  0
  7  9  1  0
  9 10  2  0
 22 23  2  0
 22 24  1  0
 22 25  1  0
 23 26  1  0
 24 27  1  0
 24 28  1  0
 24 29  1  0
 25 30  2  0
 26 31  2  0
 30 31  1  0
  8 23  1  0
M  END
>  <ID_NEW>
CPDPP3466

>  <pEC50>
5.173925197299173

$$$$

  SciTegic12180813522D

 32 36  0  0  0  0            999 V2000
   11.2680   -4.2751    0.0000 C   0  0
   11.0061   -5.0567    0.0000 N   0  0
   11.6675   -5.5417    0.0000 C   0  0
   12.3418   -5.0638    0.0000 O   0  0
   12.0880   -4.2802    0.0000 N   0  0
   11.6629   -6.3705    0.0000 O   0  0
    6.6659    1.8609    0.0000 C   0  0
    5.8346    1.8602    0.0000 C   0  0
    5.4207    1.1343    0.0000 C   0  0
    5.8327    0.4212    0.0000 N   0  0
    6.6587    0.4218    0.0000 C   0  0
    7.0772    1.1440    0.0000 C   0  0
    7.0724   -0.2961    0.0000 O   0  0
    7.8981   -0.3016    0.0000 C   0  0
   11.5722   -2.8846    0.0000 C   0  0
   11.3197   -2.0983    0.0000 C   0  0
   10.5147   -1.9220    0.0000 C   0  0
    9.9616   -2.5349    0.0000 C   0  0
   10.2142   -3.3197    0.0000 C   0  0
   11.0195   -3.4923    0.0000 C   0  0
   10.2615   -1.1340    0.0000 S   0  0
    9.4733   -1.3898    0.0000 O   0  0
   11.0492   -0.8829    0.0000 O   0  0
   10.0057   -0.3485    0.0000 N   0  0
    7.7945    0.7292    0.0000 C   0  0
    7.7933   -0.0940    0.0000 C   0  0
    8.5123   -0.5068    0.0000 C   0  0
    8.5105    1.1420    0.0000 C   0  0
    9.2217    0.7328    0.0000 C   0  0
    9.2224   -0.0936    0.0000 C   0  0
   10.4876    0.3146    0.0000 C   0  0
   10.0062    0.9845    0.0000 C   0  0
  1  2  1  0
  2  3  1  0
  3  4  1  0
  4  5  1  0
  5  1  2  0
  3  6  2  0
 10 11  1  0
  8  9  1  0
 11 12  2  0
 12  7  1  0
  7  8  2  0
  9 10  2  0
 11 13  1  0
 13 14  1  0
 21 23  2  0
 19 20  2  0
 20 15  1  0
 15 16  2  0
 20  1  1  0
 17 18  2  0
 17 21  1  0
 18 19  1  0
 21 22  2  0
 16 17  1  0
 26 27  1  0
 27 30  2  0
 25 26  2  0
 29 28  2  0
 30 24  1  0
 24 31  1  0
 31 32  1  0
 32 29  1  0
 28 25  1  0
 29 30  1  0
 24 21  1  0
 25 12  1  0
M  END
>  <ID_NEW>
CPDPP3467

>  <pEC50>
5.173925197299173

$$$$

  SciTegic12180813082D

 34 38  0  0  0  0            999 V2000
    3.6056    2.1368    0.0000 N   0  0
    4.2384    2.6661    0.0000 C   0  0
    5.0371    2.4668    0.0000 S   0  0
    5.4754    3.1658    0.0000 C   0  0
    4.9461    3.7987    0.0000 N   0  0
    4.1807    3.4907    0.0000 N   0  0
    6.2985    3.2220    0.0000 C   0  0
    7.0389    2.8608    0.0000 C   0  0
    6.9827    3.6839    0.0000 C   0  0
    0.7267    2.1411    0.0000 C   0  0
    0.7264    1.2944    0.0000 C   0  0
   -0.0712    1.0206    0.0000 C   0  0
   -0.0708    2.4156    0.0000 C   0  0
   -0.5301    1.7082    0.0000 C   0  0
   -1.7823    2.4402    0.0000 N   0  0
   -1.3618    1.7085    0.0000 C   0  0
    1.4518    2.5642    0.0000 C   0  0
    1.4513    0.8709    0.0000 C   0  0
    2.1764    1.2940    0.0000 C   0  0
    2.1767    2.1407    0.0000 C   0  0
   -2.6073    2.4419    0.0000 C   0  0
   -3.0154    3.1557    0.0000 N   0  0
   -3.8396    3.1576    0.0000 C   0  0
   -4.2543    2.4435    0.0000 C   0  0
   -3.8389    1.7257    0.0000 C   0  0
   -3.0160    1.7274    0.0000 C   0  0
   -2.6013    1.0142    0.0000 Cl  0  0
   -5.0804    2.4436    0.0000 C   0  0
   -5.8311    2.4440    0.0000 F   0  0
   -5.6247    3.1122    0.0000 F   0  0
   -5.6257    1.7756    0.0000 F   0  0
    2.8922    2.5513    0.0000 S   0  0
    3.3778    3.3177    0.0000 O   0  0
    2.4415    3.2248    0.0000 O   0  0
  1  2  1  0
  2  3  1  0
  3  4  1  0
  4  5  2  0
  5  6  1  0
  6  2  2  0
  4  7  1  0
  8  7  1  0
  9  8  1  0
  7  9  1  0
 11 10  2  0
 12 11  1  0
 13 10  1  0
 14 13  1  0
 15 16  1  0
 16 14  1  0
 17 10  1  0
 18 11  1  0
 19 20  1  0
 20 17  2  0
 12 14  1  0
 19 18  2  0
 15 21  1  0
 21 22  2  0
 22 23  1  0
 23 24  2  0
 24 25  1  0
 25 26  2  0
 26 21  1  0
 26 27  1  0
 28 29  1  0
 28 30  1  0
 28 31  1  0
 24 28  1  0
 20 32  1  0
 32  1  1  0
 32 33  2  0
 32 34  2  0
M  END
>  <ID_NEW>
CPDPP3468

>  <pEC50>
5.15204986704359

$$$$

  SciTegic12180813592D

 38 41  0  0  0  0            999 V2000
   -0.7625    2.6440    0.0000 C   0  0
   -1.5642    2.6222    0.0000 C   0  0
   -1.5815    3.0950    0.0000 C   0  0
   -1.1833    3.3371    0.0000 C   0  0
   -0.7675    3.1159    0.0000 C   0  0
   -1.1530    2.4015    0.0000 C   0  0
   -1.1436    1.9309    0.0000 O   0  0
   -3.1960    3.1477    0.0000 C   0  0
   -3.5701    3.3556    0.0000 S   0  0
   -3.8859    3.0689    0.0000 C   0  0
   -3.7098    2.6811    0.0000 N   0  0
   -3.2909    2.7213    0.0000 C   0  0
   -4.2983    3.1617    0.0000 C   0  0
   -4.4322    3.5643    0.0000 C   0  0
   -4.8480    3.6531    0.0000 C   0  0
   -5.1325    3.3349    0.0000 C   0  0
   -4.9994    2.9331    0.0000 C   0  0
   -4.5846    2.8439    0.0000 C   0  0
   -5.5493    3.4225    0.0000 C   0  0
   -5.6750    3.8332    0.0000 F   0  0
   -5.8317    3.1080    0.0000 F   0  0
   -5.3577    3.8073    0.0000 F   0  0
   -3.0020    2.4117    0.0000 C   0  0
   -2.7847    3.3649    0.0000 C   0  0
   -2.3914    3.1185    0.0000 N   0  0
   -1.9773    3.3425    0.0000 C   0  0
   -2.1805    2.1487    0.0000 C   0  0
   -2.4071    2.5485    0.0000 C   0  0
   -1.7435    2.2097    0.0000 F   0  0
   -2.1492    1.7087    0.0000 F   0  0
   -1.7731    1.7721    0.0000 F   0  0
   -0.7300    1.7032    0.0000 C   0  0
   -0.1375    1.9416    0.0000 N   0  0
    0.4125    1.9416    0.0000 O   0  0
    0.5818    2.4591    0.0000 C   0  0
    0.1375    2.7875    0.0000 N   0  0
   -0.3067    2.4591    0.0000 C   0  0
    1.1001    2.6296    0.0000 O   0  0
 18 13  1  0
 16 19  1  0
  4  5  2  0
 19 20  1  0
  5  1  1  0
 19 21  1  0
  2  3  2  0
 19 22  1  0
  9 10  1  0
 12 23  1  0
 10 11  2  0
 11 12  1  0
 25 24  1  0
 24  8  1  0
 12  8  2  0
 25 26  1  0
 26  3  1  0
  1  6  2  0
 10 13  1  0
 27 28  1  0
  6  2  1  0
 27 29  1  0
 13 14  2  0
 27 30  1  0
 27 31  1  0
 25 28  1  0
 14 15  1  0
  7 32  1  0
 33 34  1  0
  6  7  1  0
 15 16  2  0
  3  4  1  0
 16 17  1  0
  8  9  1  0
 34 35  1  0
 35 36  1  0
 36 37  1  0
 37 33  2  0
 17 18  2  0
 35 38  2  0
  1 37  1  0
M  END
>  <ID_NEW>
CPDPP3469

>  <pEC50>
5.1323218107737905

$$$$

  -MTS-   10172316532D 0   0.00000     0.00000     0

 45 49  0  0  1  0  0  0  0  0999 V2000
    3.5270  -12.1300    0.0000 C   0  0  0  0  0  0  0  0  0  0  0  0
    3.6390  -11.4250    0.0000 C   0  0  2  0  0  0  0  0  0  0  0  0
    3.0880  -10.9790    0.0000 C   0  0  0  0  0  0  0  0  0  0  0  0
    2.4220  -11.2320    0.0000 C   0  0  0  0  0  0  0  0  0  0  0  0
    2.3100  -11.9360    0.0000 C   0  0  1  0  0  0  0  0  0  0  0  0
    2.8640  -12.3870    0.0000 C   0  0  0  0  0  0  0  0  0  0  0  0
    1.6480  -12.1890    0.0000 C   0  0  0  0  0  0  0  0  0  0  0  0
    1.0990  -11.7420    0.0000 F   0  0  0  0  0  0  0  0  0  0  0  0
    1.5360  -12.8880    0.0000 F   0  0  0  0  0  0  0  0  0  0  0  0
    1.5750  -11.4850    0.0000 F   0  0  0  0  0  0  0  0  0  0  0  0
    4.3010  -11.1720    0.0000 C   0  0  0  0  0  0  0  0  0  0  0  0
    4.8950  -11.5610    0.0000 N   0  0  0  0  0  0  0  0  0  0  0  0
    5.4460  -11.1150    0.0000 C   0  0  0  0  0  0  0  0  0  0  0  0
    5.1920  -10.4540    0.0000 C   0  0  0  0  0  0  0  0  0  0  0  0
    4.4850  -10.4900    0.0000 S   0  0  0  0  0  0  0  0  0  0  0  0
    6.1300  -11.2990    0.0000 C   0  0  0  0  0  0  0  0  0  0  0  0
    6.3120  -11.9830    0.0000 N   0  0  0  0  0  0  0  0  0  0  0  0
    5.8080  -12.4860    0.0000 C   0  0  0  0  0  0  0  0  0  0  0  0
    5.9880  -13.1670    0.0000 C   0  0  0  0  0  0  0  0  0  0  0  0
    6.6720  -13.3550    0.0000 C   0  0  0  0  0  0  0  0  0  0  0  0
    7.1750  -12.8550    0.0000 C   0  0  0  0  0  0  0  0  0  0  0  0
    6.9940  -12.1670    0.0000 C   0  0  0  0  0  0  0  0  0  0  0  0
    6.8520  -14.0400    0.0000 C   0  0  0  0  0  0  0  0  0  0  0  0
    6.3490  -14.5380    0.0000 F   0  0  0  0  0  0  0  0  0  0  0  0
    7.5360  -14.2260    0.0000 F   0  0  0  0  0  0  0  0  0  0  0  0
    6.1440  -14.0370    0.0000 F   0  0  0  0  0  0  0  0  0  0  0  0
    5.5780   -9.8600    0.0000 C   0  0  1  0  0  0  0  0  0  0  0  0
    6.2850   -9.8970    0.0000 O   0  0  0  0  0  0  0  0  0  0  0  0
    5.2570   -9.2280    0.0000 C   0  0  0  0  0  0  0  0  0  0  0  0
    4.5500   -9.1910    0.0000 C   0  0  0  0  0  0  0  0  0  0  0  0
    6.6700   -9.3050    0.0000 C   0  0  0  0  0  0  0  0  0  0  0  0
    7.3790   -9.3410    0.0000 C   0  0  0  0  0  0  0  0  0  0  0  0
    7.7630   -8.7460    0.0000 C   0  0  0  0  0  0  0  0  0  0  0  0
    7.4380   -8.1150    0.0000 C   0  0  0  0  0  0  0  0  0  0  0  0
    6.7270   -8.0820    0.0000 C   0  0  0  0  0  0  0  0  0  0  0  0
    6.3460   -8.6780    0.0000 C   0  0  0  0  0  0  0  0  0  0  0  0
    8.4700   -8.7800    0.0000 O   0  0  0  0  0  0  0  0  0  0  0  0
    8.7940   -9.4110    0.0000 C   0  0  0  0  0  0  0  0  0  0  0  0
    7.8210   -7.5190    0.0000 C   0  0  0  0  0  0  0  0  0  0  0  0
    8.5290   -7.5520    0.0000 N   0  0  0  0  0  0  0  0  0  0  0  0
    7.4970   -6.8890    0.0000 N   0  0  0  0  0  0  0  0  0  0  0  0
    7.8790   -6.2930    0.0000 O   0  0  0  0  0  0  0  0  0  0  0  0
    8.8240   -6.9000    0.0000 C   0  0  0  0  0  0  0  0  0  0  0  0
    9.5280   -6.8300    0.0000 O   0  0  0  0  0  0  0  0  0  0  0  0
    5.6390   -8.6450    0.0000 F   0  0  0  0  0  0  0  0  0  0  0  0
 20 21  1  0  0  0  0
 21 22  1  0  0  0  0
  7  8  1  0  0  0  0
 20 23  1  0  0  0  0
 23 24  1  0  0  0  0
  7  9  1  0  0  0  0
 23 25  1  0  0  0  0
 23 26  1  0  0  0  0
  7 10  1  0  0  0  0
 14 27  1  0  0  0  0
 27 28  1  0  0  0  0
  2 11  1  6  0  0  0
 27 29  1  6  0  0  0
 11 12  2  0  0  0  0
 29 30  1  0  0  0  0
 28 31  1  0  0  0  0
 31 32  2  0  0  0  0
 32 33  1  0  0  0  0
  1  6  1  0  0  0  0
 33 34  2  0  0  0  0
 12 13  1  0  0  0  0
 34 35  1  0  0  0  0
 13 14  2  0  0  0  0
 35 36  2  0  0  0  0
 36 31  1  0  0  0  0
 14 15  1  0  0  0  0
 15 11  1  0  0  0  0
 33 37  1  0  0  0  0
  2  3  1  0  0  0  0
 37 38  1  0  0  0  0
 13 16  1  0  0  0  0
  3  4  1  0  0  0  0
 16 17  1  0  0  0  0
 34 39  1  0  0  0  0
 17 18  1  0  0  0  0
 39 40  1  0  0  0  0
  5  4  1  0  0  0  0
 39 41  2  0  0  0  0
  5  6  1  0  0  0  0
 41 42  1  0  0  0  0
  5  7  1  1  0  0  0
  1  2  1  0  0  0  0
 17 22  1  0  0  0  0
 18 19  1  0  0  0  0
 19 20  1  0  0  0  0
 40 43  1  0  0  0  0
 43 44  2  0  0  0  0
 42 43  1  0  0  0  0
 36 45  1  0  0  0  0
M  END
>  <ID_NEW>
CPDPP3470

>  <pEC50>
5.127601347819614

$$$$

  SciTegic12180813072D

 35 38  0  0  0  0            999 V2000
   -4.8698    1.5319    0.0000 C   0  0
   -4.8675    2.6128    0.0000 C   0  0
   -4.2412    1.5325    0.0000 C   0  0
   -4.2400    2.6154    0.0000 C   0  0
   -3.9274    2.0672    0.0000 C   0  0
   -3.9241    0.9830    0.0000 Cl  0  0
   -3.2993    2.0682    0.0000 C   0  0
   -2.9836    1.5307    0.0000 O   0  0
    0.7768    3.5538    0.0000 N   0  0
    1.3145    3.2407    0.0000 C   0  0
    1.4489    2.6219    0.0000 N   0  0
    2.0695    2.5541    0.0000 N   0  0
    2.3283    3.1168    0.0000 C   0  0
    1.8661    3.5470    0.0000 S   0  0
   -1.4000    2.9254    0.0000 C   0  0
   -1.4000    2.3005    0.0000 C   0  0
   -1.9919    3.1186    0.0000 C   0  0
   -0.8600    3.2448    0.0000 C   0  0
   -1.9955    2.1108    0.0000 C   0  0
   -0.8621    1.9887    0.0000 C   0  0
   -2.3592    2.6126    0.0000 C   0  0
   -0.3199    2.9266    0.0000 C   0  0
   -0.3173    2.3026    0.0000 C   0  0
   -2.9846    2.6111    0.0000 N   0  0
    0.2329    3.2451    0.0000 S   0  0
    0.5444    2.6925    0.0000 O   0  0
   -0.0836    3.7844    0.0000 O   0  0
    2.9411    3.2409    0.0000 C   0  0
    3.3529    2.7697    0.0000 C   0  0
    3.1422    3.8320    0.0000 C   0  0
   -5.1821    2.0693    0.0000 C   0  0
   -5.1839    3.1573    0.0000 C   0  0
   -5.4704    3.6517    0.0000 F   0  0
   -4.9516    3.7711    0.0000 F   0  0
   -5.8320    3.2610    0.0000 F   0  0
 25  9  1  0
 25 26  2  0
 25 27  2  0
 22 25  1  0
  9 10  1  0
 10 11  2  0
 11 12  1  0
 12 13  2  0
 13 14  1  0
 14 10  1  0
 15 16  2  0
 15 17  1  0
 15 18  1  0
 16 19  1  0
 16 20  1  0
 17 21  1  0
 18 22  2  0
 20 23  2  0
 21 24  1  0
 19 21  1  0
 22 23  1  0
  7  8  2  0
  4  5  1  0
 31  1  2  0
 31  2  1  0
  1  3  1  0
  2  4  2  0
  3  5  2  0
  3  6  1  0
  5  7  1  0
 24  7  1  0
 13 28  1  0
 28 29  1  0
 28 30  1  0
 32 33  1  0
 32 34  1  0
 32 35  1  0
  2 32  1  0
M  END
>  <ID_NEW>
CPDPP3471

>  <pEC50>
5.089347935835864

$$$$

  SciTegic12180812472D

 35 38  0  0  0  0            999 V2000
    0.0867   -4.5273    0.0000 C   0  0
    0.9851   -4.1943    0.0000 C   0  0
    0.4923   -5.3786    0.0000 C   0  0
   -0.4657   -3.7412    0.0000 C   0  0
    1.7169   -4.7911    0.0000 C   0  0
    1.1498   -3.2487    0.0000 C   0  0
    2.6098   -4.4631    0.0000 C   0  0
    2.0360   -2.9183    0.0000 C   0  0
    3.4662   -4.9114    0.0000 C   0  0
    2.7764   -3.5297    0.0000 C   0  0
    4.1478   -4.2439    0.0000 N   0  0
    3.5950   -5.8651    0.0000 O   0  0
    3.7259   -3.3953    0.0000 C   0  0
    4.1689   -2.5459    0.0000 O   0  0
   -0.7457   -4.9906    0.0000 C   0  0
    6.3139   -3.1375    0.0000 C   0  0
    6.3151   -3.9648    0.0000 C   0  0
    7.0331   -4.3777    0.0000 C   0  0
    7.7505   -3.9644    0.0000 C   0  0
    7.7534   -3.1338    0.0000 C   0  0
    7.0313   -2.7247    0.0000 C   0  0
    5.5966   -4.3768    0.0000 C   0  0
    8.4654   -2.7186    0.0000 S   0  0
    8.0500   -2.0000    0.0000 O   0  0
    8.8750   -3.4292    0.0000 O   0  0
    9.1797   -2.3142    0.0000 N   0  0
    9.8967   -2.7347    0.0000 C   0  0
    9.9705   -3.5553    0.0000 N   0  0
   10.7755   -3.7359    0.0000 N   0  0
   11.1960   -3.0260    0.0000 C   0  0
   10.6508   -2.4069    0.0000 S   0  0
   12.0174   -2.9489    0.0000 C   0  0
   12.4967   -3.6217    0.0000 C   0  0
   12.3637   -2.1990    0.0000 C   0  0
    4.8833   -3.9625    0.0000 C   0  0
  1  2  1  0
  1 15  1  0
  1  3  1  0
  1  4  1  0
  2  5  2  0
  2  6  1  0
  5  7  1  0
  6  8  2  0
  7  9  1  0
  7 10  2  0
  9 11  1  0
  9 12  2  0
 10 13  1  0
 13 14  2  0
  8 10  1  0
 11 13  1  0
 30 31  1  0
 31 27  1  0
 30 32  1  0
 32 33  1  0
 32 34  1  0
 16 17  2  0
 17 18  1  0
 18 19  2  0
 19 20  1  0
 20 21  2  0
 21 16  1  0
 17 22  1  0
 20 23  1  0
 22 35  1  0
 23 24  2  0
 23 25  2  0
 23 26  1  0
 26 27  1  0
 27 28  2  0
 28 29  1  0
 29 30  2  0
 11 35  1  0
M  END
>  <ID_NEW>
CPDPP3472

>  <pEC50>
5.085348113584487

$$$$

  SciTegic12180813592D

 28 31  0  0  0  0            999 V2000
   -4.7626    1.7444    0.0000 C   0  0
   -4.0628    2.2704    0.0000 N   0  0
   -4.3434    3.1027    0.0000 O   0  0
   -5.2216    3.0929    0.0000 C   0  0
   -5.4837    2.2547    0.0000 N   0  0
   -5.7458    3.7977    0.0000 O   0  0
   -4.7987   -0.9723    0.0000 C   0  0
   -4.0058   -0.5315    0.0000 C   0  0
   -3.9938    0.3735    0.0000 C   0  0
   -4.7731    0.8375    0.0000 C   0  0
   -5.5661    0.3898    0.0000 C   0  0
   -5.5743   -0.5138    0.0000 C   0  0
   -3.2040    0.8156    0.0000 Cl  0  0
   -4.6890   -3.7250    0.0000 C   0  0
   -4.6259   -4.6184    0.0000 C   0  0
   -3.8194   -5.0123    0.0000 C   0  0
   -3.0801   -4.5125    0.0000 C   0  0
   -3.9478   -3.2231    0.0000 C   0  0
   -3.1392   -3.6192    0.0000 C   0  0
   -2.3961   -3.1197    0.0000 C   0  0
   -2.4549   -2.2220    0.0000 C   0  0
   -3.2635   -1.8259    0.0000 C   0  0
   -4.0132   -2.3277    0.0000 N   0  0
   -1.9542   -3.8917    0.0000 C   0  0
   -1.5417   -2.8833    0.0000 C   0  0
   -4.7959   -1.8750    0.0000 S   0  0
   -4.0209   -1.4208    0.0000 O   0  0
   -5.5792   -1.4250    0.0000 O   0  0
  1  2  2  0
  2  3  1  0
  3  4  1  0
  4  5  1  0
  5  1  1  0
  4  6  2  0
  7  8  2  0
  8  9  1  0
  9 10  2  0
 10 11  1  0
 11 12  2  0
 12  7  1  0
  9 13  1  0
 10  1  1  0
 16 17  1  0
 18 14  2  0
 14 15  1  0
 15 16  2  0
 19 17  2  0
 18 19  1  0
 18 23  1  0
 19 20  1  0
 20 21  1  0
 21 22  1  0
 22 23  1  0
 20 24  1  0
 20 25  1  0
 23 26  1  0
 26  7  1  0
 26 27  2  0
 26 28  2  0
M  END
>  <ID_NEW>
CPDPP3473

>  <pEC50>
5.070440309943339

$$$$

  SciTegic12180812562D

 27 30  0  0  0  0            999 V2000
    6.2618   -0.9351    0.0000 C   0  0
    7.5570   -0.1784    0.0000 C   0  0
    8.8599   -0.9216    0.0000 C   0  0
    8.8677   -2.4216    0.0000 C   0  0
    7.5725   -3.1783    0.0000 C   0  0
    6.2696   -2.4351    0.0000 C   0  0
   10.1550   -0.1649    0.0000 C   0  0
    4.9745   -3.1918    0.0000 C   0  0
    4.9823   -4.6918    0.0000 N   0  0
    6.2852   -5.4350    0.0000 C   0  0
    7.5803   -4.6783    0.0000 C   0  0
    8.8832   -5.4216    0.0000 C   0  0
   10.1783   -4.6648    0.0000 C   0  0
   -0.9225   -7.2761    0.0000 C   0  0
   -0.1708   -8.5712    0.0000 C   0  0
    1.3375   -8.5635    0.0000 C   0  0
   -0.1824   -5.9732    0.0000 C   0  0
    1.3176   -5.9654    0.0000 C   0  0
    2.0775   -7.2605    0.0000 C   0  0
    3.5381   -6.9411    0.0000 N   0  0
    3.6871   -5.4485    0.0000 C   0  0
    2.3197   -4.8455    0.0000 O   0  0
   11.5254   -0.7704    0.0000 N   0  0
   12.5233    0.3495    0.0000 O   0  0
   11.7666    1.6447    0.0000 C   0  0
   10.3011    1.3250    0.0000 N   0  0
   12.1500    3.0958    0.0000 O   0  0
 18 19  1  0
 15 16  1  0
 16 19  2  0
 14 15  2  0
 18 17  2  0
 19 20  1  0
 20 21  2  0
 21 22  1  0
 22 18  1  0
 17 14  1  0
  9 21  1  0
  1  2  2  0
  3  7  1  0
  3  4  2  0
  6  8  1  0
  4  5  1  0
  8  9  1  0
  9 10  1  0
  2  3  1  0
 10 11  1  0
  7 23  2  0
  5  6  2  0
 11 12  1  0
  6  1  1  0
 23 24  1  0
 24 25  1  0
 25 26  1  0
 26  7  1  0
 12 13  1  0
 25 27  2  0
M  END
>  <ID_NEW>
CPDPP3474

>  <pEC50>
5.037860356969059

$$$$

  SciTegic12180812332D

 33 35  0  0  0  0            999 V2000
    4.3908   -7.8426    0.0000 C   0  0
    4.1921   -7.1189    0.0000 N   0  0
    4.8219   -6.7098    0.0000 N   0  0
    5.4058   -7.1825    0.0000 C   0  0
    5.1386   -7.8831    0.0000 S   0  0
    3.9177   -8.4254    0.0000 C   0  0
    4.1838   -9.1255    0.0000 C   0  0
    3.1785   -8.3121    0.0000 C   0  0
    6.1321   -6.9896    0.0000 N   0  0
    6.3277   -6.2614    0.0000 S   0  0
    7.0777   -6.2609    0.0000 C   0  0
    6.3892   -5.5129    0.0000 O   0  0
    5.5842   -6.1307    0.0000 O   0  0
    7.4531   -5.6116    0.0000 C   0  0
    8.2031   -5.6110    0.0000 C   0  0
    8.5777   -6.2598    0.0000 C   0  0
    8.2022   -6.9133    0.0000 C   0  0
    7.4522   -6.9138    0.0000 C   0  0
    9.3277   -6.2592    0.0000 C   0  0
    9.7022   -6.9122    0.0000 N   0  0
   13.0774   -7.5588    0.0000 C   0  0
   12.7029   -8.2122    0.0000 C   0  0
   12.7019   -6.9100    0.0000 C   0  0
   13.8274   -7.5623    0.0000 C   0  0
   11.9512   -8.2086    0.0000 C   0  0
   11.9522   -6.9106    0.0000 C   0  0
   14.0193   -6.8342    0.0000 F   0  0
   13.7597   -8.3067    0.0000 F   0  0
   14.5630   -7.6890    0.0000 F   0  0
   11.5767   -7.5599    0.0000 C   0  0
   10.8267   -7.5604    0.0000 N   0  0
   10.4522   -6.9117    0.0000 C   0  0
   10.8276   -6.2623    0.0000 O   0  0
  5  1  1  0
  9 10  1  0
  1  2  2  0
 10 11  1  0
  1  6  1  0
 10 12  2  0
 10 13  2  0
  6  7  1  0
 11 14  2  0
  2  3  1  0
 14 15  1  0
  6  8  1  0
 15 16  2  0
  3  4  2  0
 16 17  1  0
  4  9  1  0
 17 18  2  0
 18 11  1  0
  4  5  1  0
 16 19  1  0
 19 20  1  0
 21 22  1  0
 21 23  2  0
 21 24  1  0
 22 25  2  0
 23 26  1  0
 24 27  1  0
 24 28  1  0
 24 29  1  0
 25 30  1  0
 30 31  1  0
 31 32  1  0
 32 33  2  0
 26 30  2  0
 20 32  1  0
M  END
>  <ID_NEW>
CPDPP3475

>  <pEC50>
5.0222763947111515

$$$$

  SciTegic12180813102D

 34 37  0  0  0  0            999 V2000
   -3.4957    2.0914    0.0000 C   0  0
   -4.3005    2.2913    0.0000 N   0  0
   -4.8735    1.6996    0.0000 C   0  0
   -4.6476    0.8997    0.0000 C   0  0
   -3.8394    0.7027    0.0000 C   0  0
   -3.2676    1.2970    0.0000 C   0  0
   -2.4679    1.0996    0.0000 Cl  0  0
   -5.2252    0.2994    0.0000 C   0  0
   -5.8057   -0.3044    0.0000 F   0  0
   -5.8296    0.8757    0.0000 F   0  0
   -4.6224   -0.2817    0.0000 F   0  0
   -2.9239    2.6860    0.0000 N   0  0
    0.5904    2.2280    0.0000 C   0  0
    1.3911    2.4632    0.0000 S   0  0
    1.1556    3.2630    0.0000 O   0  0
    2.1901    2.7036    0.0000 N   0  0
    1.6257    1.6621    0.0000 O   0  0
    0.3927    1.4289    0.0000 C   0  0
   -0.0063    2.8035    0.0000 C   0  0
   -0.4032    1.1989    0.0000 C   0  0
   -0.9964    1.7740    0.0000 C   0  0
   -0.7963    2.5720    0.0000 C   0  0
   -1.4973    3.0084    0.0000 C   0  0
   -2.1247    2.4813    0.0000 C   0  0
   -1.8174    1.7152    0.0000 C   0  0
    2.7871    2.1294    0.0000 C   0  0
    3.6182    2.1950    0.0000 S   0  0
    3.9287    1.4450    0.0000 C   0  0
    3.3088    0.9001    0.0000 N   0  0
    2.6008    1.3312    0.0000 N   0  0
    4.7404    1.2622    0.0000 C   0  0
    5.2998    1.8731    0.0000 C   0  0
    4.9798    0.4722    0.0000 C   0  0
   -1.5558    3.8313    0.0000 C   0  0
 18 13  2  0
 13 19  1  0
 19 22  2  0
 21 20  2  0
 20 18  1  0
 21 22  1  0
 16 26  1  0
 26 27  1  0
 27 28  1  0
 28 29  2  0
 29 30  1  0
 30 26  2  0
 28 31  1  0
 31 32  1  0
 31 33  1  0
  5  6  2  0
  6  1  1  0
  6  7  1  0
  8  9  1  0
  8 10  1  0
  8 11  1  0
  4  8  1  0
 12  1  1  0
  1  2  2  0
  2  3  1  0
  3  4  2  0
  4  5  1  0
 22 23  1  0
 23 24  1  0
 24 25  1  0
 25 21  1  0
 24 12  1  0
 14 17  2  0
 13 14  1  0
 14 15  2  0
 14 16  1  0
 23 34  1  0
M  END
>  <ID_NEW>
CPDPP3476

>  <pEC50>
5.015189434630634

$$$$

  SciTegic12180813012D

 31 33  0  0  0  0            999 V2000
    0.7973    3.0558    0.0000 C   0  0
   -0.6555    2.6825    0.0000 C   0  0
   -1.0586    1.2377    0.0000 C   0  0
   -0.0089    0.1662    0.0000 C   0  0
    1.4439    0.5395    0.0000 C   0  0
    1.8470    1.9843    0.0000 C   0  0
   -1.7052    3.7540    0.0000 C   0  0
    2.4937   -0.5320    0.0000 S   0  0
   -3.1580    3.3806    0.0000 C   0  0
   -4.2077    4.4521    0.0000 N   0  0
    3.3414   -1.7695    0.0000 O   0  0
    1.3348   -1.4843    0.0000 O   0  0
    3.8003    0.2047    0.0000 N   0  0
    5.0916   -0.5586    0.0000 C   0  0
    5.2331   -2.0519    0.0000 N   0  0
    6.6970   -2.3789    0.0000 N   0  0
    7.4603   -1.0876    0.0000 C   0  0
    6.4681    0.0374    0.0000 S   0  0
    8.9536   -0.9461    0.0000 C   0  0
    9.5778    0.4179    0.0000 C   0  0
    9.8228   -2.1686    0.0000 C   0  0
   -6.7103    5.1503    0.0000 C   0  0
   -6.3072    6.5951    0.0000 C   0  0
   -8.1631    4.7769    0.0000 C   0  0
   -5.6605    4.0788    0.0000 C   0  0
   -7.3569    7.6666    0.0000 C   0  0
   -9.2128    5.8484    0.0000 C   0  0
   -6.0636    2.6340    0.0000 O   0  0
   -8.8097    7.2932    0.0000 C   0  0
   -9.8594    8.3647    0.0000 C   0  0
  -10.9091    9.4362    0.0000 N   0  0
 17 18  1  0
 18 14  1  0
 17 19  1  0
 19 20  1  0
 19 21  1  0
  1  2  2  0
  2  3  1  0
  3  4  2  0
  4  5  1  0
  5  6  2  0
  6  1  1  0
  2  7  1  0
  5  8  1  0
  7  9  1  0
  9 10  1  0
  8 11  2  0
  8 12  2  0
  8 13  1  0
 13 14  1  0
 14 15  2  0
 15 16  1  0
 16 17  2  0
 22 23  2  0
 22 24  1  0
 22 25  1  0
 23 26  1  0
 24 27  2  0
 25 28  2  0
 26 29  2  0
 29 30  1  0
 30 31  3  0
 27 29  1  0
 10 25  1  0
M  END
>  <ID_NEW>
CPDPP3477

>  <pEC50>
5.0

$$$$

  SciTegic12180813512D

 28 32  0  0  0  0            999 V2000
   -0.6397   -1.7610    0.0000 C   0  0
   -1.3664   -1.3833    0.0000 N   0  0
   -1.9534   -1.9632    0.0000 C   0  0
   -1.5846   -2.6983    0.0000 O   0  0
   -0.7734   -2.5752    0.0000 N   0  0
   -2.7681   -1.8298    0.0000 O   0  0
    0.1355   -1.4538    0.0000 C   0  0
    0.4796   -3.9271    0.0000 C   0  0
    0.9995   -4.5672    0.0000 C   0  0
    1.8137   -4.4424    0.0000 C   0  0
    0.7842   -3.1619    0.0000 C   0  0
    1.6008   -3.0338    0.0000 C   0  0
    2.1165   -3.6778    0.0000 C   0  0
    2.8854   -3.3843    0.0000 N   0  0
    2.8459   -2.5708    0.0000 C   0  0
    2.0561   -2.3538    0.0000 S   0  0
   -0.3424   -4.0522    0.0000 Cl  0  0
    0.8028   -1.9457    0.0000 C   0  0
    1.5558   -1.6147    0.0000 C   0  0
    1.6540   -0.7943    0.0000 C   0  0
    0.9912   -0.3059    0.0000 C   0  0
    0.2300   -0.6337    0.0000 C   0  0
    2.4121   -0.4651    0.0000 C   0  0
    3.0767   -0.9566    0.0000 C   0  0
    3.0698   -1.7772    0.0000 N   0  0
    3.8521   -2.0348    0.0000 C   0  0
    4.3368   -1.3683    0.0000 C   0  0
    3.8613   -0.7045    0.0000 C   0  0
  2  3  1  0
  1  7  1  0
  3  4  1  0
  4  5  1  0
  5  1  2  0
  3  6  2  0
  1  2  1  0
  8  9  2  0
 12 11  2  0
 13 14  1  0
 14 15  2  0
 15 16  1  0
 16 12  1  0
 11  8  1  0
 12 13  1  0
  8 17  1  0
  9 10  1  0
 22  7  2  0
 26 27  1  0
 27 28  1  0
 28 24  1  0
 25 26  1  0
  7 18  1  0
 18 19  2  0
 20 23  1  0
 20 21  2  0
 23 24  1  0
 24 25  1  0
 21 22  1  0
 19 20  1  0
 25 15  1  0
 10 13  2  0
M  END
>  <ID_NEW>
CPDPP3478

>  <pEC50>
5.0

$$$$

  -MTS-   10172316532D 0   0.00000     0.00000     0

 40 45  0  0  0  0  0  0  0  0999 V2000
    4.3200   -2.8470    0.0000 C   0  0  2  0  0  0  0  0  0  0  0  0
    4.3780   -2.0180    0.0000 C   0  0  0  0  0  0  0  0  0  0  0  0
    4.9070   -3.1680    0.0000 C   0  0  0  0  0  0  0  0  0  0  0  0
    3.6130   -3.1310    0.0000 N   0  0  0  0  0  0  0  0  0  0  0  0
    4.4710   -2.5850    0.0000 C   0  0  1  0  0  0  0  0  0  0  0  0
    5.0530   -2.9200    0.0000 N   0  0  0  0  0  0  0  0  0  0  0  0
    3.7910   -2.8470    0.0000 C   0  0  0  0  0  0  0  0  0  0  0  0
    3.7530   -4.6210    0.0000 C   0  0  0  0  0  0  0  0  0  0  0  0
    3.7510   -5.0980    0.0000 C   0  0  0  0  0  0  0  0  0  0  0  0
    4.1660   -5.3360    0.0000 C   0  0  0  0  0  0  0  0  0  0  0  0
    4.5790   -5.0980    0.0000 C   0  0  0  0  0  0  0  0  0  0  0  0
    4.5760   -4.6170    0.0000 C   0  0  0  0  0  0  0  0  0  0  0  0
    4.1650   -4.3790    0.0000 C   0  0  0  0  0  0  0  0  0  0  0  0
    3.3370   -5.3350    0.0000 C   0  0  0  0  0  0  0  0  0  0  0  0
    2.9270   -5.0970    0.0000 F   0  0  0  0  0  0  0  0  0  0  0  0
    3.3360   -5.8140    0.0000 F   0  0  0  0  0  0  0  0  0  0  0  0
    3.2150   -4.8750    0.0000 F   0  0  0  0  0  0  0  0  0  0  0  0
    4.9600   -4.3370    0.0000 C   0  0  0  0  0  0  0  0  0  0  0  0
    5.4160   -4.4810    0.0000 S   0  0  0  0  0  0  0  0  0  0  0  0
    5.6980   -4.0930    0.0000 C   0  0  0  0  0  0  0  0  0  0  0  0
    5.4170   -3.7090    0.0000 C   0  0  0  0  0  0  0  0  0  0  0  0
    4.9620   -3.8550    0.0000 N   0  0  0  0  0  0  0  0  0  0  0  0
    5.5850   -3.3000    0.0000 C   0  0  0  0  0  0  0  0  0  0  0  0
    6.1770   -4.0940    0.0000 C   0  0  0  0  0  0  0  0  0  0  0  0
    6.4300   -3.8340    0.0000 O   0  0  0  0  0  0  0  0  0  0  0  0
    6.8030   -3.8370    0.0000 C   0  0  0  0  0  0  0  0  0  0  0  0
    6.9880   -4.1610    0.0000 C   0  0  0  0  0  0  0  0  0  0  0  0
    7.3600   -4.1640    0.0000 C   0  0  0  0  0  0  0  0  0  0  0  0
    7.5500   -3.8420    0.0000 C   0  0  0  0  0  0  0  0  0  0  0  0
    7.3630   -3.5150    0.0000 C   0  0  0  0  0  0  0  0  0  0  0  0
    6.9880   -3.5150    0.0000 C   0  0  0  0  0  0  0  0  0  0  0  0
    7.5470   -4.4890    0.0000 F   0  0  0  0  0  0  0  0  0  0  0  0
    7.9270   -3.8450    0.0000 C   0  0  0  0  0  0  0  0  0  0  0  0
    8.1400   -4.1520    0.0000 N   0  0  0  0  0  0  0  0  0  0  0  0
    8.4960   -4.0340    0.0000 O   0  0  0  0  0  0  0  0  0  0  0  0
    8.4970   -3.6550    0.0000 C   0  0  0  0  0  0  0  0  0  0  0  0
    8.1430   -3.5420    0.0000 N   0  0  0  0  0  0  0  0  0  0  0  0
    8.8020   -3.4370    0.0000 O   0  0  0  0  0  0  0  0  0  0  0  0
    4.3940   -3.5820    0.0000 H   0  0  0  0  0  0  0  0  0  0  0  0
    4.2610   -3.8450    0.0000 H   0  0  0  0  0  0  0  0  0  0  0  0
 13  8  1  0  0  0  0
 33 34  2  0  0  0  0
 35 36  1  0  0  0  0
 36 37  1  0  0  0  0
 37 33  1  0  0  0  0
  9 14  1  0  0  0  0
 36 38  2  0  0  0  0
 23  6  1  0  0  0  0
  1  2  1  0  0  0  0
 14 15  1  0  0  0  0
  1  3  1  0  0  0  0
 14 16  1  0  0  0  0
  1  4  1  0  0  0  0
 14 17  1  0  0  0  0
  2  5  1  0  0  0  0
 12 18  1  0  0  0  0
 21 22  1  0  0  0  0
  3  6  1  0  0  0  0
 19 20  1  0  0  0  0
  4  7  1  0  0  0  0
  5  6  1  0  0  0  0
  5  7  1  0  0  0  0
 18 19  1  0  0  0  0
 20 21  2  0  0  0  0
 22 18  2  0  0  0  0
 21 23  1  0  0  0  0
 20 24  1  0  0  0  0
 24 25  1  0  0  0  0
 25 26  1  0  0  0  0
  8  9  2  0  0  0  0
 26 27  2  0  0  0  0
 27 28  1  0  0  0  0
  9 10  1  0  0  0  0
 28 29  2  0  0  0  0
 29 30  1  0  0  0  0
 10 11  2  0  0  0  0
 30 31  2  0  0  0  0
 31 26  1  0  0  0  0
 28 32  1  0  0  0  0
 11 12  1  0  0  0  0
 29 33  1  0  0  0  0
 34 35  1  0  0  0  0
 12 13  2  0  0  0  0
  5 39  1  6  0  0  0
  1 40  1  1  0  0  0
V    1 M1
V    5 M1
M  END
>  <ID_NEW>
CPDPP3479

>  <pEC50>
4.996298626177017

$$$$

  SciTegic12180812592D

 31 34  0  0  0  0            999 V2000
  -11.1655  -12.3317    0.0000 C   0  0
  -11.1521  -13.8317    0.0000 C   0  0
   -9.8464  -14.5700    0.0000 C   0  0
   -8.5541  -13.8085    0.0000 C   0  0
   -8.5675  -12.3085    0.0000 C   0  0
   -9.8732  -11.5701    0.0000 C   0  0
  -12.4711  -11.5934    0.0000 Cl  0  0
   -7.2752  -11.5469    0.0000 C   0  0
   -5.9695  -12.2853    0.0000 N   0  0
   -7.2886  -10.0470    0.0000 O   0  0
   -4.6772  -11.5237    0.0000 C   0  0
   -3.3715  -12.2621    0.0000 C   0  0
   -2.0793  -11.5005    0.0000 C   0  0
   -0.7736  -12.2389    0.0000 C   0  0
    0.5187  -11.4773    0.0000 C   0  0
    0.5053   -9.9774    0.0000 C   0  0
   -0.8004   -9.2390    0.0000 C   0  0
   -2.0926  -10.0006    0.0000 C   0  0
    1.7976   -9.2158    0.0000 S   0  0
    3.2025   -8.6902    0.0000 O   0  0
    2.4437  -10.5696    0.0000 O   0  0
   -7.2484  -14.5468    0.0000 Cl  0  0
    3.7515   -3.0445    0.0000 C   0  0
    3.5301   -4.5281    0.0000 C   0  0
    4.6851   -1.8704    0.0000 C   0  0
    3.2015   -1.6490    0.0000 C   0  0
    2.1997   -5.2210    0.0000 S   0  0
    4.6002   -5.5792    0.0000 N   0  0
    2.4476   -6.7004    0.0000 C   0  0
    3.9312   -6.9218    0.0000 N   0  0
    1.3965   -7.7705    0.0000 N   0  0
  9 11  1  0
  6  1  1  0
 11 12  1  0
  1  2  2  0
 12 13  1  0
  1  7  1  0
 13 14  2  0
  3  4  2  0
 14 15  1  0
 15 16  2  0
 16 17  1  0
  5  8  1  0
 17 18  2  0
 18 13  1  0
  4  5  1  0
 16 19  1  0
  8  9  1  0
 19 20  2  0
  2  3  1  0
 19 21  2  0
  8 10  2  0
  5  6  2  0
  4 22  1  0
 23 24  1  0
 23 25  1  0
 23 26  1  0
 24 27  1  0
 24 28  2  0
 27 29  1  0
 28 30  1  0
 29 31  1  0
 25 26  1  0
 29 30  2  0
 19 31  1  0
M  END
>  <ID_NEW>
CPDPP3480

>  <pEC50>
4.995804447000189

$$$$

  SciTegic12180813012D

 31 33  0  0  0  0            999 V2000
   -0.4502    4.7219    0.0000 C   0  0
   -1.9030    4.3485    0.0000 C   0  0
   -2.3061    2.9037    0.0000 C   0  0
   -1.2564    1.8322    0.0000 C   0  0
    0.1964    2.2055    0.0000 C   0  0
    0.5995    3.6504    0.0000 C   0  0
   -2.9528    5.4200    0.0000 C   0  0
    1.2461    1.1340    0.0000 S   0  0
   -4.4056    5.0466    0.0000 C   0  0
   -5.4553    6.1181    0.0000 N   0  0
    2.0938   -0.1034    0.0000 O   0  0
    0.0872    0.1817    0.0000 O   0  0
    2.5528    1.8707    0.0000 N   0  0
    3.8441    1.1074    0.0000 C   0  0
    3.9855   -0.3859    0.0000 N   0  0
    5.4495   -0.7128    0.0000 N   0  0
    6.2128    0.5784    0.0000 C   0  0
    5.2206    1.7034    0.0000 S   0  0
    7.7061    0.7199    0.0000 C   0  0
    8.3302    2.0839    0.0000 C   0  0
    8.5753   -0.5026    0.0000 C   0  0
   -7.9578    6.8163    0.0000 C   0  0
   -7.5547    8.2611    0.0000 C   0  0
   -9.4106    6.4429    0.0000 C   0  0
   -6.9081    5.7448    0.0000 C   0  0
   -8.6045    9.3326    0.0000 C   0  0
   -6.1019    8.6345    0.0000 C   0  0
  -10.4603    7.5144    0.0000 C   0  0
   -9.8137    4.9981    0.0000 C   0  0
   -7.3112    4.3000    0.0000 O   0  0
  -10.0573    8.9592    0.0000 C   0  0
  5  8  1  0
  7  9  1  0
  9 10  1  0
  8 11  2  0
  8 12  2  0
  8 13  1  0
 13 14  1  0
 14 15  2  0
 15 16  1  0
 16 17  2  0
 17 18  1  0
 18 14  1  0
 17 19  1  0
 19 20  1  0
 19 21  1  0
  1  2  2  0
  2  3  1  0
  3  4  2  0
  4  5  1  0
  5  6  2  0
  6  1  1  0
  2  7  1  0
 22 23  2  0
 22 24  1  0
 22 25  1  0
 23 26  1  0
 23 27  1  0
 24 28  2  0
 24 29  1  0
 25 30  2  0
 26 31  2  0
 28 31  1  0
 10 25  1  0
M  END
>  <ID_NEW>
CPDPP3481

>  <pEC50>
4.982861918847326

$$$$

  SciTegic12180813102D

 39 42  0  0  0  0            999 V2000
   -3.4957    2.6247    0.0000 C   0  0
   -4.3005    2.8246    0.0000 N   0  0
   -4.8735    2.2329    0.0000 C   0  0
   -4.6476    1.4330    0.0000 C   0  0
   -3.8394    1.2360    0.0000 C   0  0
   -3.2676    1.8303    0.0000 C   0  0
   -2.4679    1.6329    0.0000 Cl  0  0
   -5.2252    0.8327    0.0000 C   0  0
   -5.8057    0.2289    0.0000 F   0  0
   -5.8296    1.4090    0.0000 F   0  0
   -4.6224    0.2516    0.0000 F   0  0
   -2.9239    3.2193    0.0000 N   0  0
    0.5904    2.7613    0.0000 C   0  0
    1.3911    2.9965    0.0000 S   0  0
    1.1556    3.7963    0.0000 O   0  0
    2.1901    3.2369    0.0000 N   0  0
    1.6257    2.1954    0.0000 O   0  0
    0.3927    1.9622    0.0000 C   0  0
   -0.0063    3.3368    0.0000 C   0  0
   -0.4032    1.7322    0.0000 C   0  0
   -0.9964    2.3073    0.0000 C   0  0
   -0.7963    3.1053    0.0000 C   0  0
   -1.4973    3.5417    0.0000 C   0  0
   -2.1247    3.0146    0.0000 C   0  0
   -1.8174    2.2485    0.0000 C   0  0
    0.9878    1.3931    0.0000 O   0  0
    0.7926    0.5911    0.0000 C   0  0
    2.7871    2.6627    0.0000 C   0  0
    3.6182    2.7283    0.0000 S   0  0
    3.9287    1.9783    0.0000 C   0  0
    3.3088    1.4334    0.0000 N   0  0
    2.6008    1.8645    0.0000 N   0  0
    4.7404    1.7955    0.0000 C   0  0
    5.2998    2.4064    0.0000 C   0  0
    4.9798    1.0055    0.0000 C   0  0
    0.0008    0.3593    0.0000 C   0  0
   -0.7227    0.1464    0.0000 F   0  0
   -0.7129    0.8457    0.0000 F   0  0
   -0.3373   -0.4371    0.0000 F   0  0
 26 27  1  0
 18 13  2  0
 13 19  1  0
 19 22  2  0
 21 20  2  0
 20 18  1  0
 21 22  1  0
 16 28  1  0
 28 29  1  0
 29 30  1  0
 30 31  2  0
 31 32  1  0
 32 28  2  0
 30 33  1  0
 33 34  1  0
 33 35  1  0
  5  6  2  0
  6  1  1  0
  6  7  1  0
  8  9  1  0
  8 10  1  0
  8 11  1  0
  4  8  1  0
 12  1  1  0
 27 36  1  0
 36 37  1  0
 36 38  1  0
 36 39  1  0
  1  2  2  0
  2  3  1  0
  3  4  2  0
  4  5  1  0
 22 23  1  0
 23 24  1  0
 24 25  1  0
 25 21  1  0
 24 12  1  0
 18 26  1  0
 14 17  2  0
 13 14  1  0
 14 15  2  0
 14 16  1  0
M  END
>  <ID_NEW>
CPDPP3482

>  <pEC50>
4.95960899731951

$$$$

  SciTegic12180813012D

 33 36  0  0  0  0            999 V2000
   -4.3792    2.1456    0.0000 C   0  0
   -4.3792    1.3171    0.0000 C   0  0
   -5.0993    2.5556    0.0000 C   0  0
   -3.6632    2.5556    0.0000 O   0  0
   -5.0993    0.9029    0.0000 C   0  0
   -3.6632    0.9029    0.0000 O   0  0
   -5.8117    2.1456    0.0000 C   0  0
   -5.0993    3.3841    0.0000 C   0  0
   -2.9465    2.1456    0.0000 C   0  0
   -5.8117    1.3171    0.0000 C   0  0
   -2.9465    1.3171    0.0000 C   0  0
   -4.3792    3.7975    0.0000 N   0  0
   -5.8117    3.7975    0.0000 O   0  0
   -3.6657    3.3833    0.0000 C   0  0
   -2.9502    3.7940    0.0000 C   0  0
   -2.2368    3.3798    0.0000 C   0  0
   -2.2423    2.5573    0.0000 C   0  0
   -1.5297    2.1431    0.0000 C   0  0
   -0.8132    2.5539    0.0000 C   0  0
   -0.8138    3.3832    0.0000 C   0  0
   -1.5270    3.7936    0.0000 C   0  0
   -0.0960    2.1414    0.0000 S   0  0
   -0.0970    1.3164    0.0000 N   0  0
    0.8189    2.1990    0.0000 O   0  0
    0.0694    2.9799    0.0000 O   0  0
    0.6170    0.9031    0.0000 C   0  0
    0.7034    0.0831    0.0000 S   0  0
    1.5102   -0.0893    0.0000 C   0  0
    1.9236    0.6248    0.0000 N   0  0
    1.3721    1.2384    0.0000 N   0  0
    1.8449   -0.8434    0.0000 C   0  0
    1.3593   -1.5103    0.0000 C   0  0
    2.6653   -0.9305    0.0000 C   0  0
 18 19  2  0
 19 20  1  0
 20 21  2  0
 21 16  1  0
 22 23  1  0
 22 24  2  0
 19 22  1  0
 22 25  2  0
 23 26  1  0
 26 27  1  0
 27 28  1  0
 28 29  2  0
 29 30  1  0
 30 26  2  0
 28 31  1  0
 31 32  1  0
  1  2  1  0
 31 33  1  0
  1  3  2  0
  1  4  1  0
  2  5  2  0
  2  6  1  0
  3  7  1  0
  3  8  1  0
  4  9  1  0
  5 10  1  0
  6 11  1  0
  8 12  1  0
  8 13  2  0
  7 10  2  0
  9 11  1  0
 12 14  1  0
 14 15  1  0
 15 16  1  0
 16 17  2  0
 17 18  1  0
M  END
>  <ID_NEW>
CPDPP3483

>  <pEC50>
4.958607314841775

$$$$

  SciTegic12180813002D

 31 34  0  0  0  0            999 V2000
   20.6923   -8.4447    0.0000 C   0  0
   21.9960   -9.1865    0.0000 C   0  0
   23.2903   -8.4284    0.0000 C   0  0
   23.2809   -6.9284    0.0000 C   0  0
   21.9772   -6.1866    0.0000 C   0  0
   20.6829   -6.9447    0.0000 C   0  0
   11.6039   -9.2519    0.0000 C   0  0
   11.6134  -10.7518    0.0000 C   0  0
   12.9171  -11.4937    0.0000 C   0  0
   14.2114  -10.7355    0.0000 C   0  0
   14.2020   -9.2355    0.0000 C   0  0
   12.8982   -8.4937    0.0000 C   0  0
   10.3002   -8.5101    0.0000 Cl  0  0
   15.5151  -11.4773    0.0000 C   0  0
   15.4963   -8.4774    0.0000 C   0  0
   16.8000   -9.2192    0.0000 N   0  0
   18.0943   -8.4610    0.0000 C   0  0
   19.3980   -9.2029    0.0000 C   0  0
   24.5752   -6.1702    0.0000 S   0  0
   25.9815   -5.6484    0.0000 O   0  0
   25.2177   -7.5257    0.0000 O   0  0
   15.4868   -6.9774    0.0000 O   0  0
   27.4820    1.1675    0.0000 C   0  0
   26.5454   -0.0041    0.0000 C   0  0
   25.9990    1.3928    0.0000 C   0  0
   26.7148   -3.8818    0.0000 N   0  0
   27.3874   -2.5411    0.0000 N   0  0
   26.3201   -1.4871    0.0000 C   0  0
   24.9879   -2.1765    0.0000 S   0  0
   25.2318   -3.6565    0.0000 C   0  0
   24.1779   -4.7238    0.0000 N   0  0
  4 19  1  0
  9 10  2  0
 19 20  2  0
  2  3  1  0
 19 21  2  0
 10 11  1  0
  5  6  2  0
 15 22  2  0
 11 12  2  0
 12  7  1  0
  6  1  1  0
  7 13  1  0
  1  2  2  0
 10 14  1  0
  3  4  2  0
 11 15  1  0
  7  8  2  0
 15 16  1  0
 16 17  1  0
  8  9  1  0
 17 18  1  0
 18  1  1  0
  4  5  1  0
 24 23  1  0
 25 24  1  0
 23 25  1  0
 27 28  2  0
 28 29  1  0
 29 30  1  0
 30 26  2  0
 26 27  1  0
 30 31  1  0
 28 24  1  0
 19 31  1  0
M  END
>  <ID_NEW>
CPDPP3484

>  <pEC50>
4.95170961041419

$$$$

  SciTegic12180813012D

 32 35  0  0  0  0            999 V2000
   -1.6210    3.6232    0.0000 C   0  0
   -0.9076    3.2090    0.0000 C   0  0
   -0.9131    2.3865    0.0000 C   0  0
   -0.2005    1.9723    0.0000 C   0  0
    0.5160    2.3831    0.0000 C   0  0
    0.5154    3.2124    0.0000 C   0  0
   -0.1978    3.6228    0.0000 C   0  0
    1.2332    1.9706    0.0000 S   0  0
    1.2322    1.1456    0.0000 N   0  0
    2.1481    2.0282    0.0000 O   0  0
    1.3986    2.8091    0.0000 O   0  0
    1.9462    0.7323    0.0000 C   0  0
    2.0326   -0.0877    0.0000 S   0  0
    2.8394   -0.2601    0.0000 C   0  0
    3.2528    0.4540    0.0000 N   0  0
    2.7013    1.0676    0.0000 N   0  0
    3.1741   -1.0142    0.0000 C   0  0
    2.6885   -1.6811    0.0000 C   0  0
    3.9945   -1.1013    0.0000 C   0  0
   -2.3365    3.2124    0.0000 C   0  0
   -4.5573    2.1029    0.0000 C   0  0
   -4.5631    1.2830    0.0000 C   0  0
   -3.8107    2.5018    0.0000 C   0  0
   -5.3583    2.3721    0.0000 O   0  0
   -5.3677    1.0464    0.0000 C   0  0
   -3.8222    0.8736    0.0000 C   0  0
   -3.1164    2.0927    0.0000 C   0  0
   -3.8172    3.3218    0.0000 C   0  0
   -5.8310    1.7044    0.0000 C   0  0
   -3.1223    1.2728    0.0000 C   0  0
   -3.0500    3.6266    0.0000 N   0  0
   -4.5152    3.7989    0.0000 O   0  0
  4  5  2  0
  5  6  1  0
  6  7  2  0
  7  2  1  0
  8  9  1  0
  8 10  2  0
  5  8  1  0
  8 11  2  0
  9 12  1  0
 12 13  1  0
 13 14  1  0
 14 15  2  0
 15 16  1  0
 16 12  2  0
 14 17  1  0
 17 18  1  0
 17 19  1  0
  1  2  1  0
  2  3  2  0
  3  4  1  0
  1 20  1  0
 20 31  1  0
 21 22  2  0
 21 23  1  0
 21 24  1  0
 22 25  1  0
 22 26  1  0
 23 27  2  0
 23 28  1  0
 24 29  1  0
 26 30  2  0
 28 31  1  0
 28 32  2  0
 25 29  1  0
 27 30  1  0
M  END
>  <ID_NEW>
CPDPP3485

>  <pEC50>
4.927509522234231

$$$$

  -MTS-   10172316532D 0   0.00000     0.00000     0

 42 46  0  0  0  0  0  0  0  0999 V2000
   -0.4600   -4.7350    0.0000 C   0  0  1  0  0  0  0  0  0  0  0  0
   -1.1260   -4.0680    0.0000 C   0  0  0  0  0  0  0  0  0  0  0  0
   -2.0320   -4.3110    0.0000 C   0  0  0  0  0  0  0  0  0  0  0  0
   -2.2780   -5.2200    0.0000 C   0  0  1  0  0  0  0  0  0  0  0  0
   -1.6120   -5.8870    0.0000 C   0  0  0  0  0  0  0  0  0  0  0  0
   -0.6990   -5.6440    0.0000 C   0  0  0  0  0  0  0  0  0  0  0  0
   -3.1840   -5.4620    0.0000 C   0  0  0  0  0  0  0  0  0  0  0  0
   -3.8450   -4.7980    0.0000 F   0  0  0  0  0  0  0  0  0  0  0  0
   -3.4280   -6.3670    0.0000 F   0  0  0  0  0  0  0  0  0  0  0  0
   -3.1830   -4.5240    0.0000 F   0  0  0  0  0  0  0  0  0  0  0  0
    0.4450   -4.4900    0.0000 C   0  0  0  0  0  0  0  0  0  0  0  0
    1.1790   -5.0800    0.0000 N   0  0  0  0  0  0  0  0  0  0  0  0
    1.9640   -4.5670    0.0000 C   0  0  0  0  0  0  0  0  0  0  0  0
    1.7190   -3.6620    0.0000 C   0  0  0  0  0  0  0  0  0  0  0  0
    0.7830   -3.6160    0.0000 S   0  0  0  0  0  0  0  0  0  0  0  0
    2.8400   -4.9010    0.0000 C   0  0  0  0  0  0  0  0  0  0  0  0
    2.9890   -5.8270    0.0000 O   0  0  0  0  0  0  0  0  0  0  0  0
    3.5670   -4.3090    0.0000 N   0  0  0  0  0  0  0  0  0  0  0  0
    4.4380   -4.6470    0.0000 C   0  0  0  0  0  0  0  0  0  0  0  0
    5.1640   -4.0590    0.0000 C   0  0  0  0  0  0  0  0  0  0  0  0
    5.0190   -3.1330    0.0000 C   0  0  0  0  0  0  0  0  0  0  0  0
    4.1430   -2.7960    0.0000 C   0  0  0  0  0  0  0  0  0  0  0  0
    3.4110   -3.3870    0.0000 C   0  0  0  0  0  0  0  0  0  0  0  0
    5.7490   -2.5440    0.0000 C   0  0  0  0  0  0  0  0  0  0  0  0
    6.6240   -2.8810    0.0000 F   0  0  0  0  0  0  0  0  0  0  0  0
    5.6030   -1.6170    0.0000 F   0  0  0  0  0  0  0  0  0  0  0  0
    6.1290   -3.4010    0.0000 F   0  0  0  0  0  0  0  0  0  0  0  0
    2.3070   -2.9320    0.0000 C   0  0  0  0  0  0  0  0  0  0  0  0
    1.9690   -2.0580    0.0000 O   0  0  0  0  0  0  0  0  0  0  0  0
    2.6320   -1.3890    0.0000 C   0  0  0  0  0  0  0  0  0  0  0  0
    3.5430   -1.6320    0.0000 C   0  0  0  0  0  0  0  0  0  0  0  0
    4.2050   -0.9640    0.0000 C   0  0  0  0  0  0  0  0  0  0  0  0
    3.9570   -0.0540    0.0000 C   0  0  0  0  0  0  0  0  0  0  0  0
    3.0410    0.1830    0.0000 C   0  0  0  0  0  0  0  0  0  0  0  0
    2.3830   -0.4860    0.0000 C   0  0  0  0  0  0  0  0  0  0  0  0
    4.6160    0.6130    0.0000 C   0  0  0  0  0  0  0  0  0  0  0  0
    5.5190    0.3730    0.0000 N   0  0  0  0  0  0  0  0  0  0  0  0
    4.3690    1.5170    0.0000 N   0  0  0  0  0  0  0  0  0  0  0  0
    5.1690    1.9570    0.0000 O   0  0  0  0  0  0  0  0  0  0  0  0
    5.8980    1.4150    0.0000 C   0  0  0  0  0  0  0  0  0  0  0  0
    6.9800    1.8630    0.0000 O   0  0  0  0  0  0  0  0  0  0  0  0
    5.1120   -1.2040    0.0000 F   0  0  0  0  0  0  0  0  0  0  0  0
  1  6  1  0  0  0  0
  2  3  1  0  0  0  0
  3  4  1  0  0  0  0
  4  5  1  0  0  0  0
  5  6  1  0  0  0  0
  4  7  1  1  0  0  0
  7  8  1  0  0  0  0
  7  9  1  0  0  0  0
  7 10  1  0  0  0  0
  1 11  1  6  0  0  0
 11 12  2  0  0  0  0
 12 13  1  0  0  0  0
 13 14  2  0  0  0  0
 14 15  1  0  0  0  0
 15 11  1  0  0  0  0
 13 16  1  0  0  0  0
 16 17  2  0  0  0  0
 16 18  1  0  0  0  0
 18 19  1  0  0  0  0
 18 23  1  0  0  0  0
 19 20  1  0  0  0  0
 20 21  1  0  0  0  0
 21 22  1  0  0  0  0
 22 23  1  0  0  0  0
 21 24  1  0  0  0  0
 24 25  1  0  0  0  0
 24 26  1  0  0  0  0
 24 27  1  0  0  0  0
 14 28  1  0  0  0  0
 28 29  1  0  0  0  0
 29 30  1  0  0  0  0
 30 31  2  0  0  0  0
 31 32  1  0  0  0  0
 32 33  2  0  0  0  0
 33 34  1  0  0  0  0
 34 35  2  0  0  0  0
 35 30  1  0  0  0  0
 33 36  1  0  0  0  0
 36 37  1  0  0  0  0
 38 36  2  0  0  0  0
 38 39  1  0  0  0  0
 37 40  1  0  0  0  0
 40 41  2  0  0  0  0
 40 39  1  0  0  0  0
  1  2  1  0  0  0  0
 32 42  1  0  0  0  0
V    1 M1
V    4 M1
M  END
>  <ID_NEW>
CPDPP3486

>  <pEC50>
4.921543181946707

$$$$

  SciTegic12180812332D

 29 31  0  0  0  0            999 V2000
   15.8830  -17.4426    0.0000 C   0  0
   15.1197  -18.7339    0.0000 N   0  0
   13.6558  -18.4070    0.0000 N   0  0
   13.5143  -16.9137    0.0000 C   0  0
   14.8908  -16.3177    0.0000 S   0  0
   17.3763  -17.3011    0.0000 C   0  0
   18.0005  -15.9372    0.0000 C   0  0
   18.2455  -18.5237    0.0000 C   0  0
   12.2230  -16.1504    0.0000 N   0  0
   10.9164  -16.8870    0.0000 S   0  0
    9.8666  -15.8155    0.0000 C   0  0
    9.7575  -17.8394    0.0000 O   0  0
   11.7641  -18.1245    0.0000 O   0  0
    8.4138  -16.1889    0.0000 C   0  0
    7.3641  -15.1174    0.0000 C   0  0
    7.7672  -13.6726    0.0000 C   0  0
    9.2200  -13.2992    0.0000 C   0  0
   10.2697  -14.3707    0.0000 C   0  0
    6.7175  -12.6011    0.0000 C   0  0
    7.1206  -11.1562    0.0000 N   0  0
    6.4739   -8.6399    0.0000 C   0  0
    5.4242   -7.5684    0.0000 C   0  0
    7.9267   -8.2666    0.0000 C   0  0
    6.0708  -10.0847    0.0000 C   0  0
    5.8273   -6.1236    0.0000 C   0  0
    8.3298   -6.8217    0.0000 C   0  0
    4.6180  -10.4581    0.0000 O   0  0
    7.2801   -5.7503    0.0000 C   0  0
    4.7775   -5.0521    0.0000 Cl  0  0
 10 11  1  0
  1  6  1  0
 10 12  2  0
 10 13  2  0
  6  7  1  0
 11 14  2  0
  2  3  1  0
 14 15  1  0
  6  8  1  0
 15 16  2  0
  3  4  2  0
 16 17  1  0
  4  9  1  0
 17 18  2  0
 18 11  1  0
  4  5  1  0
 16 19  1  0
 19 20  1  0
  5  1  1  0
  9 10  1  0
  1  2  2  0
 21 22  2  0
 21 23  1  0
 21 24  1  0
 22 25  1  0
 23 26  2  0
 24 27  2  0
 25 28  2  0
 25 29  1  0
 26 28  1  0
 20 24  1  0
M  END
>  <ID_NEW>
CPDPP3487

>  <pEC50>
4.915710477400529

$$$$

  SciTegic12180813082D

 36 40  0  0  0  0            999 V2000
   -3.1450    1.2835    0.0000 C   0  0
   -2.9681    2.0894    0.0000 N   0  0
   -3.5800    2.6415    0.0000 C   0  0
   -4.3658    2.3873    0.0000 C   0  0
   -4.5361    1.5757    0.0000 C   0  0
   -3.9228    1.0270    0.0000 C   0  0
   -4.0913    0.2194    0.0000 Cl  0  0
   -4.9790    2.9378    0.0000 C   0  0
   -5.5372    3.4397    0.0000 F   0  0
   -4.9372    3.7990    0.0000 F   0  0
   -5.8309    2.8051    0.0000 F   0  0
    2.4239    1.9810    0.0000 N   0  0
   -0.4419    1.1503    0.0000 C   0  0
   -0.4419    0.3254    0.0000 C   0  0
   -1.2254    1.4060    0.0000 C   0  0
    0.2690    1.5656    0.0000 C   0  0
   -1.2290    0.0733    0.0000 C   0  0
    0.2669   -0.0864    0.0000 C   0  0
   -1.7094    0.7334    0.0000 C   0  0
    0.9841    1.1515    0.0000 C   0  0
    0.9867    0.3275    0.0000 C   0  0
   -2.5348    0.7319    0.0000 N   0  0
    1.7077    1.5659    0.0000 S   0  0
    2.1192    0.8425    0.0000 O   0  0
    1.2954    2.2843    0.0000 O   0  0
    3.1391    1.5697    0.0000 C   0  0
    3.2277    0.7513    0.0000 S   0  0
    4.0350    0.5811    0.0000 C   0  0
    4.4463    1.2964    0.0000 N   0  0
    3.8932    1.9084    0.0000 N   0  0
    4.3718   -0.1720    0.0000 C   0  0
    3.8857   -0.8381    0.0000 C   0  0
    4.2192   -1.5888    0.0000 C   0  0
    5.0397   -1.6779    0.0000 C   0  0
    5.5257   -1.0101    0.0000 C   0  0
    5.1911   -0.2531    0.0000 C   0  0
  1  2  2  0
  2  3  1  0
  3  4  2  0
  4  5  1  0
  5  6  2  0
 33 34  1  0
 34 35  2  0
 35 36  1  0
 13 14  2  0
 13 15  1  0
 13 16  1  0
 14 17  1  0
 14 18  1  0
 15 19  1  0
 16 20  2  0
 18 21  2  0
 19 22  1  0
 17 19  1  0
 20 21  1  0
 23 12  1  0
 23 24  2  0
 23 25  2  0
 20 23  1  0
 12 26  1  0
 26 27  1  0
 27 28  1  0
 28 29  2  0
 29 30  1  0
 30 26  2  0
 28 31  1  0
 31 32  1  0
 31 36  2  0
 32 33  2  0
  6  1  1  0
  6  7  1  0
  8  9  1  0
  8 10  1  0
  8 11  1  0
  4  8  1  0
 22  1  1  0
M  END
>  <ID_NEW>
CPDPP3488

>  <pEC50>
4.90808198603661

$$$$

  SciTegic12180814002D

 46 49  0  0  0  0            999 V2000
    4.5952   -1.9700    0.0000 C   0  0
    3.7879   -1.7922    0.0000 C   0  0
    3.2337   -2.4053    0.0000 C   0  0
    3.4901   -3.1884    0.0000 C   0  0
    4.2956   -3.3657    0.0000 C   0  0
    4.8460   -2.7572    0.0000 C   0  0
    2.9334   -3.8015    0.0000 Cl  0  0
    3.5340   -1.0057    0.0000 S   0  0
    2.7494   -1.2606    0.0000 O   0  0
    4.3249   -0.7502    0.0000 O   0  0
    4.5422   -4.1518    0.0000 O   0  0
    3.2806   -0.2194    0.0000 N   0  0
   -0.0593    1.9905    0.0000 C   0  0
   -0.8908    1.9903    0.0000 C   0  0
   -1.3008    1.2770    0.0000 C   0  0
   -0.8888    0.5550    0.0000 C   0  0
   -0.0625    0.5550    0.0000 C   0  0
    0.3521    1.2731    0.0000 C   0  0
   -2.1257    1.2842    0.0000 C   0  0
   -2.9533    1.2918    0.0000 F   0  0
   -2.1355    0.4588    0.0000 F   0  0
   -2.1179    2.1114    0.0000 F   0  0
    1.0694    0.8583    0.0000 C   0  0
    1.0682    0.0351    0.0000 C   0  0
    1.7872   -0.3777    0.0000 C   0  0
    1.7854    1.2711    0.0000 C   0  0
    2.4966    0.8619    0.0000 C   0  0
    2.4973    0.0355    0.0000 C   0  0
    3.7625    0.4437    0.0000 C   0  0
    3.2811    1.1136    0.0000 C   0  0
    3.7604    1.7846    0.0000 C   0  0
    2.9893    0.3426    0.0000 C   0  0
    3.9875   -4.7542    0.0000 C   0  0
    4.2333   -5.5334    0.0000 C   0  0
    3.6750   -6.1376    0.0000 O   0  0
    5.0333   -5.7167    0.0000 C   0  0
    5.8415   -5.9006    0.0000 F   0  0
    5.2168   -4.9162    0.0000 F   0  0
    4.8521   -6.5221    0.0000 F   0  0
    2.8703   -5.9556    0.0000 C   0  0
    2.3104   -6.5616    0.0000 C   0  0
    1.5057   -6.3797    0.0000 O   0  0
    2.5552   -7.3494    0.0000 C   0  0
    1.9953   -7.9553    0.0000 F   0  0
    3.3599   -7.5313    0.0000 F   0  0
    1.7308   -7.3820    0.0000 F   0  0
 18 13  1  0
 13 14  2  0
 15 16  2  0
 15 19  1  0
 19 20  1  0
 16 17  1  0
 19 21  1  0
 14 15  1  0
 24 25  1  0
 25 28  2  0
 23 24  2  0
 27 26  2  0
 28 12  1  0
 12 29  1  0
 29 30  1  0
 30 27  1  0
 26 23  1  0
 27 28  1  0
 23 18  1  0
 30 31  1  0
 19 22  1  0
 30 32  1  0
 11 33  1  0
  8 10  2  0
 33 34  1  0
  2  3  1  0
 34 35  1  0
  5  6  2  0
 34 36  1  0
  5 11  1  0
 36 37  1  0
  6  1  1  0
 36 38  1  0
  8 12  1  0
 36 39  1  0
  1  2  2  0
 35 40  1  0
  4  7  1  0
 40 41  1  0
  3  4  2  0
 41 42  1  0
  2  8  1  0
 41 43  1  0
  8  9  2  0
 43 44  1  0
  4  5  1  0
 43 45  1  0
 17 18  2  0
 43 46  1  0
M  END
>  <ID_NEW>
CPDPP3489

>  <pEC50>
4.896457688867861

$$$$

  SciTegic12180812332D

 30 32  0  0  0  0            999 V2000
   15.8632  -22.2904    0.0000 C   0  0
   15.0999  -23.5817    0.0000 N   0  0
   13.6360  -23.2548    0.0000 N   0  0
   13.4945  -21.7615    0.0000 C   0  0
   14.8710  -21.1655    0.0000 S   0  0
   17.3565  -22.1490    0.0000 C   0  0
   17.9807  -20.7850    0.0000 C   0  0
   18.2257  -23.3715    0.0000 C   0  0
   12.2032  -20.9982    0.0000 N   0  0
   10.8966  -21.7348    0.0000 S   0  0
    9.8469  -20.6634    0.0000 C   0  0
    9.7377  -22.6872    0.0000 O   0  0
   11.7443  -22.9723    0.0000 O   0  0
    8.3941  -21.0367    0.0000 C   0  0
    7.3443  -19.9652    0.0000 C   0  0
    7.7474  -18.5204    0.0000 C   0  0
    9.2002  -18.1470    0.0000 C   0  0
   10.2499  -19.2185    0.0000 C   0  0
    6.6977  -17.4489    0.0000 C   0  0
    7.1008  -16.0041    0.0000 N   0  0
    6.4541  -13.4877    0.0000 C   0  0
    5.4044  -12.4163    0.0000 C   0  0
    7.9069  -13.1144    0.0000 C   0  0
    6.0510  -14.9326    0.0000 C   0  0
    5.8075  -10.9714    0.0000 C   0  0
    8.3100  -11.6696    0.0000 C   0  0
    4.5983  -15.3059    0.0000 O   0  0
    7.2603  -10.5981    0.0000 C   0  0
    7.6633   -9.1533    0.0000 C   0  0
    8.0664   -7.7084    0.0000 N   0  0
  1  6  1  0
 10 12  2  0
 10 13  2  0
  6  7  1  0
 11 14  2  0
  2  3  1  0
 14 15  1  0
  6  8  1  0
 15 16  2  0
  3  4  2  0
 16 17  1  0
  4  9  1  0
 17 18  2  0
 18 11  1  0
  4  5  1  0
 16 19  1  0
 19 20  1  0
  5  1  1  0
  9 10  1  0
  1  2  2  0
 10 11  1  0
 21 22  2  0
 21 23  1  0
 21 24  1  0
 22 25  1  0
 23 26  2  0
 24 27  2  0
 25 28  2  0
 28 29  1  0
 29 30  3  0
 26 28  1  0
 20 24  1  0
M  END
>  <ID_NEW>
CPDPP3490

>  <pEC50>
4.721410906090395

$$$$

  SciTegic12180813072D

 35 38  0  0  0  0            999 V2000
   -3.4957    2.6247    0.0000 C   0  0
   -4.3005    2.8246    0.0000 N   0  0
   -4.8735    2.2329    0.0000 C   0  0
   -4.6476    1.4330    0.0000 C   0  0
   -3.8394    1.2360    0.0000 C   0  0
   -3.2676    1.8303    0.0000 C   0  0
   -2.4679    1.6329    0.0000 Cl  0  0
   -5.2252    0.8327    0.0000 C   0  0
   -5.8057    0.2289    0.0000 F   0  0
   -5.8296    1.4090    0.0000 F   0  0
   -4.6224    0.2516    0.0000 F   0  0
   -2.9239    3.2193    0.0000 N   0  0
    0.5904    2.7613    0.0000 C   0  0
    1.3911    2.9965    0.0000 S   0  0
    1.1556    3.7963    0.0000 O   0  0
    2.1901    3.2369    0.0000 N   0  0
    1.6257    2.1954    0.0000 O   0  0
    0.3927    1.9622    0.0000 C   0  0
   -0.0063    3.3368    0.0000 C   0  0
   -0.4032    1.7322    0.0000 C   0  0
   -0.9964    2.3073    0.0000 C   0  0
   -0.7963    3.1053    0.0000 C   0  0
   -1.4973    3.5417    0.0000 C   0  0
   -2.1247    3.0146    0.0000 C   0  0
   -1.8174    2.2485    0.0000 C   0  0
    0.9878    1.3931    0.0000 O   0  0
    0.7926    0.5911    0.0000 C   0  0
    2.7871    2.6627    0.0000 C   0  0
    3.6182    2.7283    0.0000 S   0  0
    3.9287    1.9783    0.0000 C   0  0
    3.3088    1.4334    0.0000 N   0  0
    2.6008    1.8645    0.0000 N   0  0
    4.7404    1.7955    0.0000 C   0  0
    5.2998    2.4064    0.0000 C   0  0
    4.9798    1.0055    0.0000 C   0  0
  1  2  2  0
  2  3  1  0
  3  4  2  0
  4  5  1  0
 22 23  1  0
 23 24  1  0
 24 25  1  0
 25 21  1  0
 24 12  1  0
 18 26  1  0
 14 17  2  0
 13 14  1  0
 14 15  2  0
 14 16  1  0
 26 27  1  0
 18 13  2  0
 13 19  1  0
 19 22  2  0
 21 20  2  0
 20 18  1  0
 21 22  1  0
 16 28  1  0
 28 29  1  0
 29 30  1  0
 30 31  2  0
 31 32  1  0
 32 28  2  0
 30 33  1  0
 33 34  1  0
 33 35  1  0
  5  6  2  0
  6  1  1  0
  6  7  1  0
  8  9  1  0
  8 10  1  0
  8 11  1  0
  4  8  1  0
 12  1  1  0
M  END
>  <ID_NEW>
CPDPP3491

>  <pEC50>
4.698970004336019

$$$$

  SciTegic12180813082D

 36 40  0  0  0  0            999 V2000
   -3.1450    1.2835    0.0000 C   0  0
   -2.9681    2.0894    0.0000 N   0  0
   -3.5800    2.6415    0.0000 C   0  0
   -4.3658    2.3873    0.0000 C   0  0
   -4.5361    1.5757    0.0000 C   0  0
   -3.9228    1.0270    0.0000 C   0  0
   -4.0913    0.2194    0.0000 Cl  0  0
   -4.9790    2.9378    0.0000 C   0  0
   -5.5372    3.4397    0.0000 F   0  0
   -4.9372    3.7990    0.0000 F   0  0
   -5.8309    2.8051    0.0000 F   0  0
    2.4239    1.9810    0.0000 N   0  0
   -0.4419    1.1503    0.0000 C   0  0
   -0.4419    0.3254    0.0000 C   0  0
   -1.2254    1.4060    0.0000 C   0  0
    0.2690    1.5656    0.0000 C   0  0
   -1.2290    0.0733    0.0000 C   0  0
    0.2669   -0.0864    0.0000 C   0  0
   -1.7094    0.7334    0.0000 C   0  0
    0.9841    1.1515    0.0000 C   0  0
    0.9867    0.3275    0.0000 C   0  0
   -2.5348    0.7319    0.0000 N   0  0
    1.7077    1.5659    0.0000 S   0  0
    2.1192    0.8425    0.0000 O   0  0
    1.2954    2.2843    0.0000 O   0  0
    3.1391    1.5697    0.0000 C   0  0
    3.2277    0.7513    0.0000 S   0  0
    4.0350    0.5811    0.0000 C   0  0
    4.4463    1.2964    0.0000 N   0  0
    3.8932    1.9084    0.0000 N   0  0
    4.3708   -0.1708    0.0000 C   0  0
    3.8854   -0.8373    0.0000 C   0  0
    4.2180   -1.5867    0.0000 C   0  0
    5.0370   -1.6761    0.0000 C   0  0
    5.5224   -1.0097    0.0000 C   0  0
    5.1888   -0.2539    0.0000 C   0  0
 19 22  1  0
 17 19  1  0
 20 21  1  0
 23 12  1  0
 23 24  2  0
 23 25  2  0
 20 23  1  0
 12 26  1  0
 26 27  1  0
 27 28  1  0
 28 29  2  0
 29 30  1  0
 30 26  2  0
 28 31  1  0
  6  1  1  0
  6  7  1  0
  8  9  1  0
  8 10  1  0
  8 11  1  0
  4  8  1  0
 22  1  1  0
 31 32  1  0
 31 36  1  0
 32 33  1  0
 33 34  1  0
 34 35  1  0
 35 36  1  0
  1  2  2  0
  2  3  1  0
  3  4  2  0
  4  5  1  0
  5  6  2  0
 13 14  2  0
 13 15  1  0
 13 16  1  0
 14 17  1  0
 14 18  1  0
 15 19  1  0
 16 20  2  0
 18 21  2  0
M  END
>  <ID_NEW>
CPDPP3492

>  <pEC50>
4.698970004336019

$$$$

  SciTegic12180812332D

 30 32  0  0  0  0            999 V2000
   -3.7067    7.7575    0.0000 C   0  0
   -5.1595    7.3841    0.0000 N   0  0
   -1.2042    7.0593    0.0000 C   0  0
   -2.6570    6.6860    0.0000 C   0  0
   -3.0600    5.2412    0.0000 C   0  0
   -2.0103    4.1697    0.0000 C   0  0
   -0.5575    4.5430    0.0000 C   0  0
   -0.1544    5.9878    0.0000 C   0  0
    0.4922    3.4715    0.0000 S   0  0
    1.3399    2.2340    0.0000 O   0  0
   -0.6667    2.5192    0.0000 O   0  0
    1.7989    4.2082    0.0000 N   0  0
    3.0901    3.4449    0.0000 C   0  0
    3.2316    1.9516    0.0000 N   0  0
    4.6956    1.6246    0.0000 N   0  0
    5.4589    2.9159    0.0000 C   0  0
    4.4667    4.0409    0.0000 S   0  0
    6.9522    3.0574    0.0000 C   0  0
    7.5763    4.4214    0.0000 C   0  0
    7.8213    1.8349    0.0000 C   0  0
   -7.6620    8.0823    0.0000 C   0  0
   -8.7117    9.1538    0.0000 C   0  0
   -8.0651    6.6375    0.0000 C   0  0
   -6.2092    8.4556    0.0000 C   0  0
  -10.1645    8.7804    0.0000 C   0  0
   -9.5179    6.2641    0.0000 C   0  0
   -5.8061    9.9005    0.0000 O   0  0
  -10.5676    7.3356    0.0000 C   0  0
  -11.2142    9.8519    0.0000 C   0  0
   -9.9209    4.8193    0.0000 C   0  0
  1  2  1  0
  5  6  2  0
  6  7  1  0
  7  8  2  0
  8  3  1  0
  4  1  1  0
  7  9  1  0
  9 10  2  0
  9 11  2  0
  9 12  1  0
 12 13  1  0
 13 14  2  0
 14 15  1  0
 15 16  2  0
 16 17  1  0
 17 13  1  0
 16 18  1  0
 18 19  1  0
 18 20  1  0
  3  4  2  0
  4  5  1  0
 21 22  1  0
 21 23  2  0
 21 24  1  0
 22 25  2  0
 23 26  1  0
 24 27  2  0
 25 28  1  0
 25 29  1  0
 26 30  1  0
 26 28  2  0
  2 24  1  0
M  END
>  <ID_NEW>
CPDPP3493

>  <pEC50>
4.6577644298421115

$$$$

  SciTegic12180813012D

 32 34  0  0  0  0            999 V2000
   -4.4944    2.4240    0.0000 C   0  0
   -4.6904    1.6999    0.0000 N   0  0
   -4.0613    1.2875    0.0000 N   0  0
   -3.4752    1.7611    0.0000 C   0  0
   -3.7465    2.4613    0.0000 S   0  0
   -4.9680    3.0059    0.0000 C   0  0
   -4.6976    3.7065    0.0000 C   0  0
   -5.7078    2.8916    0.0000 C   0  0
   -2.7511    1.5692    0.0000 N   0  0
   -2.5582    0.8455    0.0000 S   0  0
   -1.8082    0.8419    0.0000 C   0  0
   -2.4936    0.0971    0.0000 O   0  0
   -3.2978    0.7137    0.0000 O   0  0
   -1.4327    0.1931    0.0000 C   0  0
   -0.6827    0.1937    0.0000 C   0  0
   -0.3082    0.8430    0.0000 C   0  0
   -0.6836    1.4918    0.0000 C   0  0
   -1.4336    1.4953    0.0000 C   0  0
    0.4418    0.8435    0.0000 C   0  0
    0.8206    1.4929    0.0000 C   0  0
    1.5706    1.4934    0.0000 N   0  0
    3.8196    2.7972    0.0000 C   0  0
    4.1951    2.1443    0.0000 C   0  0
    4.1942    3.4465    0.0000 C   0  0
    3.0696    2.7967    0.0000 C   0  0
    4.9451    2.1449    0.0000 C   0  0
    4.9442    3.4470    0.0000 C   0  0
    2.6951    2.1432    0.0000 N   0  0
    5.3196    2.7983    0.0000 C   0  0
    1.9451    2.1427    0.0000 C   0  0
    6.0696    2.7988    0.0000 F   0  0
    1.5696    2.7956    0.0000 O   0  0
  4  5  1  0
 16 19  1  0
 19 20  1  0
  5  1  1  0
 20 21  1  0
  9 10  1  0
  1  2  2  0
 10 11  1  0
  1  6  1  0
 10 12  2  0
 10 13  2  0
  6  7  1  0
 11 14  2  0
  2  3  1  0
 14 15  1  0
  6  8  1  0
 15 16  2  0
  3  4  2  0
 16 17  1  0
  4  9  1  0
 17 18  2  0
 18 11  1  0
 22 23  1  0
 22 24  2  0
 22 25  1  0
 23 26  2  0
 24 27  1  0
 25 28  1  0
 26 29  1  0
 28 30  1  0
 29 31  1  0
 30 32  2  0
 27 29  2  0
 21 30  1  0
M  END
>  <ID_NEW>
CPDPP3494

>  <pEC50>
4.635844139062471

$$$$

  SciTegic12180811222D

 25 26  0  0  0  0            999 V2000
   -2.6828   -0.9897    0.0000 C   0  0
   -2.6828   -0.0069    0.0000 C   0  0
   -3.5276   -1.4793    0.0000 C   0  0
   -1.8276   -1.4793    0.0000 C   0  0
   -1.8276    0.4862    0.0000 N   0  0
   -3.5276    0.4862    0.0000 O   0  0
   -3.5276   -2.4655    0.0000 C   0  0
   -1.8276   -2.4655    0.0000 C   0  0
   -1.8276    1.4724    0.0000 C   0  0
   -2.6828   -2.9586    0.0000 C   0  0
   -0.9793    1.9552    0.0000 C   0  0
   -2.6828   -3.9379    0.0000 Cl  0  0
   -0.1241    1.4724    0.0000 C   0  0
   -0.1241    0.4862    0.0000 C   0  0
    0.7276    1.9552    0.0000 C   0  0
    0.7276   -0.0069    0.0000 C   0  0
    1.5759    1.4724    0.0000 C   0  0
    1.5759    0.4862    0.0000 C   0  0
    2.4276   -0.0069    0.0000 O   0  0
    3.2793    0.4862    0.0000 C   0  0
    4.0448    1.1000    0.0000 C   0  0
    3.6828   -0.4207    0.0000 C   0  0
    2.9345    1.5069    0.0000 C   0  0
    4.9621    0.7448    0.0000 O   0  0
    3.8931    2.0655    0.0000 O   0  0
  1  2  1  0
  1  3  1  0
  1  4  2  0
  2  5  1  0
  2  6  2  0
  3  7  2  0
  4  8  1  0
  5  9  1  0
  7 10  1  0
  9 11  1  0
 10 12  1  0
 11 13  1  0
 13 14  2  0
 13 15  1  0
 14 16  1  0
 15 17  2  0
 16 18  2  0
 18 19  1  0
 19 20  1  0
 20 21  1  0
 20 22  1  0
 20 23  1  0
 21 24  1  0
 21 25  2  0
  8 10  2  0
 17 18  1  0
M  END
>  <ID_NEW>
CPDPP3495

>  <pEC50>
4.621891091140533

$$$$

  SciTegic12180813012D

 36 39  0  0  0  0            999 V2000
    0.5750    2.1575    0.0000 O   0  0
    1.1109    1.5341    0.0000 C   0  0
    0.8359    0.7582    0.0000 C   0  0
    1.3710    0.1352    0.0000 C   0  0
    2.1797    0.2873    0.0000 C   0  0
    2.4506    1.0678    0.0000 C   0  0
    1.9137    1.6876    0.0000 C   0  0
    1.0977   -0.6433    0.0000 Cl  0  0
    2.7183   -0.3376    0.0000 C   0  0
   -4.0838    3.7400    0.0000 C   0  0
   -4.5468    3.0543    0.0000 C   0  0
   -4.1845    2.3126    0.0000 C   0  0
   -3.3593    2.2554    0.0000 C   0  0
   -2.8978    2.9459    0.0000 C   0  0
   -3.2627    3.6848    0.0000 C   0  0
   -2.0746    2.8922    0.0000 C   0  0
   -1.6331    2.1961    0.0000 O   0  0
   -0.8336    2.3994    0.0000 C   0  0
   -0.7798    3.2227    0.0000 C   0  0
   -1.5462    3.5281    0.0000 N   0  0
   -5.3698    3.1117    0.0000 O   0  0
   -0.1991    1.8721    0.0000 C   0  0
   -0.0822    3.6632    0.0000 C   0  0
   -5.8311    2.4278    0.0000 C   0  0
    0.6481    3.2793    0.0000 O   0  0
    1.3457    3.7198    0.0000 C   0  0
    2.0759    3.3359    0.0000 C   0  0
    2.7735    3.7764    0.0000 N   0  0
    3.5037    3.3925    0.0000 C   0  0
    4.2013    3.8330    0.0000 C   0  0
    3.5364    2.5682    0.0000 O   0  0
    2.5299   -1.1389    0.0000 N   0  0
    3.2352   -1.5668    0.0000 O   0  0
    3.8601   -1.0281    0.0000 C   0  0
    3.5409   -0.2674    0.0000 N   0  0
    4.6632   -1.2170    0.0000 O   0  0
  1  2  1  0
  2  3  2  0
  3  4  1  0
  4  5  2  0
  5  6  1  0
  6  7  2  0
  7  2  1  0
  4  8  1  0
  5  9  1  0
 10 11  2  0
 11 12  1  0
 12 13  2  0
 13 14  1  0
 14 15  2  0
 15 10  1  0
 14 16  1  0
 16 17  1  0
 17 18  1  0
 18 19  2  0
 19 20  1  0
 20 16  2  0
 11 21  1  0
 18 22  1  0
 22  1  1  0
 19 23  1  0
 21 24  1  0
 23 25  1  0
 25 26  1  0
 26 27  1  0
 27 28  1  0
 28 29  1  0
 29 30  1  0
 29 31  2  0
  9 32  2  0
 32 33  1  0
 33 34  1  0
 34 35  1  0
 35  9  1  0
 34 36  2  0
M  END
>  <ID_NEW>
CPDPP3496

>  <pEC50>
4.54117286383207

$$$$

  SciTegic12180813012D

 32 34  0  0  0  0            999 V2000
   -4.4923    2.4214    0.0000 C   0  0
   -4.6884    1.6974    0.0000 N   0  0
   -4.0592    1.2892    0.0000 N   0  0
   -3.4772    1.7628    0.0000 C   0  0
   -3.7443    2.4630    0.0000 S   0  0
   -4.9659    3.0076    0.0000 C   0  0
   -4.6996    3.7082    0.0000 C   0  0
   -5.7056    2.8891    0.0000 C   0  0
   -2.7532    1.5668    0.0000 N   0  0
   -2.5560    0.8431    0.0000 S   0  0
   -1.8060    0.8436    0.0000 C   0  0
   -2.4914    0.0988    0.0000 O   0  0
   -3.2956    0.7153    0.0000 O   0  0
   -1.4305    0.1948    0.0000 C   0  0
   -0.6805    0.1954    0.0000 C   0  0
   -0.3060    0.8447    0.0000 C   0  0
   -0.6815    1.4935    0.0000 C   0  0
   -1.4315    1.4929    0.0000 C   0  0
    0.4440    0.8452    0.0000 C   0  0
    0.8185    1.4945    0.0000 C   0  0
    1.5685    1.4951    0.0000 N   0  0
    3.8176    2.7989    0.0000 C   0  0
    4.1931    2.1460    0.0000 C   0  0
    4.1921    3.4482    0.0000 C   0  0
    3.0676    2.7983    0.0000 C   0  0
    4.9431    2.1466    0.0000 C   0  0
    4.9421    3.4487    0.0000 C   0  0
    2.6931    2.1449    0.0000 N   0  0
    5.3176    2.7959    0.0000 C   0  0
    5.3185    1.4978    0.0000 C   0  0
    1.9431    2.1444    0.0000 C   0  0
    1.5676    2.7973    0.0000 O   0  0
  4  5  1  0
 16 19  1  0
 19 20  1  0
  5  1  1  0
 20 21  1  0
  9 10  1  0
  1  2  2  0
 10 11  1  0
  1  6  1  0
 10 12  2  0
 10 13  2  0
  6  7  1  0
 11 14  2  0
  2  3  1  0
 14 15  1  0
  6  8  1  0
 15 16  2  0
  3  4  2  0
 16 17  1  0
  4  9  1  0
 17 18  2  0
 18 11  1  0
 22 23  1  0
 22 24  2  0
 22 25  1  0
 23 26  2  0
 24 27  1  0
 25 28  1  0
 26 29  1  0
 26 30  1  0
 28 31  1  0
 31 32  2  0
 27 29  2  0
 21 31  1  0
M  END
>  <ID_NEW>
CPDPP3497

>  <pEC50>
4.481486060122112

$$$$

  SciTegic12180813012D

 33 35  0  0  0  0            999 V2000
   -4.4949    2.4213    0.0000 C   0  0
   -4.6909    1.6972    0.0000 N   0  0
   -4.0618    1.2890    0.0000 N   0  0
   -3.4755    1.7626    0.0000 C   0  0
   -3.7470    2.4628    0.0000 S   0  0
   -4.9684    3.0074    0.0000 C   0  0
   -4.6980    3.7080    0.0000 C   0  0
   -5.7082    2.8890    0.0000 C   0  0
   -2.7515    1.5707    0.0000 N   0  0
   -2.5586    0.8428    0.0000 S   0  0
   -1.8086    0.8433    0.0000 C   0  0
   -2.4939    0.0985    0.0000 O   0  0
   -3.2982    0.7152    0.0000 O   0  0
   -1.4331    0.1946    0.0000 C   0  0
   -0.6831    0.1951    0.0000 C   0  0
   -0.3044    0.8444    0.0000 C   0  0
   -0.6841    1.4932    0.0000 C   0  0
   -1.4341    1.4926    0.0000 C   0  0
    0.4456    0.8449    0.0000 C   0  0
    0.8201    1.4943    0.0000 C   0  0
    1.5701    1.4948    0.0000 N   0  0
    3.8192    2.7987    0.0000 C   0  0
    4.1947    2.1457    0.0000 C   0  0
    4.1937    3.4480    0.0000 C   0  0
    3.0692    2.7982    0.0000 C   0  0
    4.9447    2.1463    0.0000 C   0  0
    4.9437    3.4486    0.0000 C   0  0
    2.6947    2.1446    0.0000 N   0  0
    5.3192    2.7998    0.0000 C   0  0
    1.9447    2.1441    0.0000 C   0  0
    6.0692    2.7961    0.0000 O   0  0
    1.5692    2.7971    0.0000 O   0  0
    6.4437    3.4496    0.0000 C   0  0
 16 19  1  0
 19 20  1  0
  5  1  1  0
 20 21  1  0
  9 10  1  0
  1  2  2  0
 10 11  1  0
  1  6  1  0
 10 12  2  0
 10 13  2  0
  6  7  1  0
 11 14  2  0
  2  3  1  0
 14 15  1  0
  6  8  1  0
 15 16  2  0
  3  4  2  0
 16 17  1  0
  4  9  1  0
 17 18  2  0
 18 11  1  0
  4  5  1  0
 22 23  1  0
 22 24  2  0
 22 25  1  0
 23 26  2  0
 24 27  1  0
 25 28  1  0
 26 29  1  0
 28 30  1  0
 29 31  1  0
 30 32  2  0
 31 33  1  0
 27 29  2  0
 21 30  1  0
M  END
>  <ID_NEW>
CPDPP3498

>  <pEC50>
4.481486060122112

$$$$

  SciTegic12180813012D

 32 34  0  0  0  0            999 V2000
   -4.4908    1.3763    0.0000 C   0  0
   -4.6869    0.6523    0.0000 N   0  0
   -4.0536    0.2399    0.0000 N   0  0
   -3.4673    0.7135    0.0000 C   0  0
   -3.7388    1.4178    0.0000 S   0  0
   -4.9644    1.9625    0.0000 C   0  0
   -4.6940    2.6630    0.0000 C   0  0
   -5.7083    1.8440    0.0000 C   0  0
   -2.7433    0.5175    0.0000 N   0  0
   -2.5462   -0.2063    0.0000 S   0  0
   -1.7962   -0.2057    0.0000 C   0  0
   -2.4816   -0.9547    0.0000 O   0  0
   -3.2900   -0.3382    0.0000 O   0  0
   -1.4207   -0.8545    0.0000 C   0  0
   -0.6665   -0.8582    0.0000 C   0  0
   -0.2920   -0.2047    0.0000 C   0  0
   -0.6675    0.4441    0.0000 C   0  0
   -1.4175    0.4436    0.0000 C   0  0
    0.4621   -0.2083    0.0000 C   0  0
    0.8366    0.4452    0.0000 C   0  0
    1.5908    0.4457    0.0000 N   0  0
    4.2186    2.4030    0.0000 C   0  0
    3.8441    1.7495    0.0000 C   0  0
    4.9727    2.4036    0.0000 C   0  0
    3.8431    3.0518    0.0000 C   0  0
    3.0941    1.7490    0.0000 C   0  0
    5.3472    3.0529    0.0000 C   0  0
    4.2177    3.7053    0.0000 C   0  0
    2.7153    1.0997    0.0000 N   0  0
    4.9718    3.7059    0.0000 C   0  0
    1.9653    1.0991    0.0000 C   0  0
    1.5899    1.7479    0.0000 O   0  0
  4  5  1  0
 16 19  1  0
 19 20  1  0
  5  1  1  0
 20 21  1  0
  9 10  1  0
  1  2  2  0
 10 11  1  0
  1  6  1  0
 10 12  2  0
 10 13  2  0
  6  7  1  0
 11 14  2  0
  2  3  1  0
 14 15  1  0
  6  8  1  0
 15 16  2  0
  3  4  2  0
 16 17  1  0
  4  9  1  0
 17 18  2  0
 18 11  1  0
 22 23  1  0
 22 24  2  0
 22 25  1  0
 23 26  1  0
 24 27  1  0
 25 28  2  0
 26 29  1  0
 27 30  2  0
 29 31  1  0
 31 32  2  0
 28 30  1  0
 21 31  1  0
M  END
>  <ID_NEW>
CPDPP3499

>  <pEC50>
4.481486060122112

$$$$

  SciTegic12180813012D

 32 34  0  0  0  0            999 V2000
   -3.3411    1.6409    0.0000 C   0  0
   -3.4921    2.4525    0.0000 C   0  0
   -4.2698    2.7255    0.0000 C   0  0
   -4.8964    2.1875    0.0000 C   0  0
   -4.7401    1.3731    0.0000 C   0  0
   -3.9625    1.1039    0.0000 C   0  0
   -5.6753    2.4594    0.0000 O   0  0
   -5.8293    3.2699    0.0000 C   0  0
   -1.0750    0.8167    0.0000 N   0  0
   -0.3625    1.2333    0.0000 C   0  0
    0.2208    0.6500    0.0000 C   0  0
    0.8042    1.2375    0.0000 C   0  0
    1.6050    1.0231    0.0000 C   0  0
    2.1880    1.6098    0.0000 C   0  0
    1.9711    2.4097    0.0000 C   0  0
    1.1658    2.6197    0.0000 C   0  0
    0.5862    2.0314    0.0000 C   0  0
    2.5542    3.0000    0.0000 S   0  0
    2.3375    3.8000    0.0000 O   0  0
    2.9625    2.2875    0.0000 O   0  0
    3.2667    3.4167    0.0000 N   0  0
    3.9792    3.0042    0.0000 C   0  0
    4.6917    3.4208    0.0000 S   0  0
    5.4042    3.0083    0.0000 C   0  0
    4.1917    2.2083    0.0000 N   0  0
    5.1875    2.2125    0.0000 N   0  0
    6.2292    3.0083    0.0000 C   0  0
    6.9417    3.4250    0.0000 C   0  0
    6.8125    2.4250    0.0000 C   0  0
   -1.7918    1.2252    0.0000 C   0  0
   -2.6208    1.2292    0.0000 N   0  0
   -1.5785    2.0222    0.0000 O   0  0
  3  4  2  0
  4  5  1  0
  5  6  2  0
  6  1  1  0
  4  7  1  0
  7  8  1  0
  9 10  1  0
 10 11  1  0
 11 12  1  0
 12 13  2  0
 13 14  1  0
 14 15  2  0
 15 16  1  0
 16 17  2  0
 17 12  1  0
 15 18  1  0
 18 19  2  0
 18 20  2  0
 18 21  1  0
 21 22  1  0
 22 23  1  0
 23 24  1  0
 22 25  2  0
 24 26  2  0
 25 26  1  0
 24 27  1  0
 27 28  1  0
 27 29  1  0
  1  2  2  0
  9 30  1  0
 30 31  1  0
  2  3  1  0
 30 32  2  0
 31  1  1  0
M  END
>  <ID_NEW>
CPDPP3500

>  <pEC50>
4.481486060122112

$$$$

  SciTegic12180813012D

 30 32  0  0  0  0            999 V2000
   -4.4951    1.3422    0.0000 C   0  0
   -4.6897    2.0659    0.0000 N   0  0
   -4.0599    2.4792    0.0000 N   0  0
   -3.4760    2.0023    0.0000 C   0  0
   -3.7430    1.3017    0.0000 S   0  0
   -4.9640    0.7595    0.0000 C   0  0
   -4.6980    0.0593    0.0000 C   0  0
   -5.7074    0.8769    0.0000 C   0  0
   -2.7538    2.1994    0.0000 N   0  0
   -2.5624    2.9235    0.0000 S   0  0
   -1.8124    2.9240    0.0000 C   0  0
   -2.4926    3.6719    0.0000 O   0  0
   -3.2976    3.0542    0.0000 O   0  0
   -1.4328    3.5733    0.0000 C   0  0
   -0.6828    3.5739    0.0000 C   0  0
   -0.3082    2.9251    0.0000 C   0  0
   -0.6795    2.2716    0.0000 C   0  0
   -1.4295    2.2710    0.0000 C   0  0
    0.4418    2.9256    0.0000 C   0  0
    0.8205    2.2727    0.0000 C   0  0
    1.5705    2.2732    0.0000 N   0  0
    3.0679    0.9762    0.0000 C   0  0
    3.8179    0.9768    0.0000 C   0  0
    2.6934    0.3269    0.0000 C   0  0
    2.6925    1.6250    0.0000 N   0  0
    4.1934    0.3280    0.0000 C   0  0
    3.0689   -0.3219    0.0000 C   0  0
    1.9450    1.6244    0.0000 C   0  0
    3.8189   -0.3213    0.0000 C   0  0
    1.5696    0.9751    0.0000 O   0  0
 17 18  2  0
 18 11  1  0
  4  5  1  0
 16 19  1  0
 19 20  1  0
  5  1  1  0
 20 21  1  0
  9 10  1  0
  1  2  2  0
 10 11  1  0
  1  6  1  0
 10 12  2  0
 10 13  2  0
  6  7  1  0
 11 14  2  0
  2  3  1  0
 14 15  1  0
  6  8  1  0
 15 16  2  0
  3  4  2  0
 16 17  1  0
  4  9  1  0
 22 23  1  0
 22 24  2  0
 22 25  1  0
 23 26  2  0
 24 27  1  0
 25 28  1  0
 26 29  1  0
 28 30  2  0
 27 29  2  0
 21 28  1  0
M  END
>  <ID_NEW>
CPDPP3501

>  <pEC50>
4.481486060122112

$$$$

  SciTegic12180812332D

 31 33  0  0  0  0            999 V2000
   -4.4938    1.3477    0.0000 C   0  0
   -4.6909    2.0701    0.0000 N   0  0
   -4.0624    2.4777    0.0000 N   0  0
   -3.4754    2.0047    0.0000 C   0  0
   -3.7458    1.3073    0.0000 S   0  0
   -4.9665    0.7651    0.0000 C   0  0
   -4.6993    0.0649    0.0000 C   0  0
   -5.7065    0.8825    0.0000 C   0  0
   -2.7517    2.2034    0.0000 N   0  0
   -2.5599    2.9252    0.0000 S   0  0
   -1.8099    2.9288    0.0000 C   0  0
   -2.4922    3.6725    0.0000 O   0  0
   -3.2997    3.0570    0.0000 O   0  0
   -1.4353    3.5753    0.0000 C   0  0
   -0.6811    3.5790    0.0000 C   0  0
   -0.3057    2.9278    0.0000 C   0  0
   -0.6802    2.2771    0.0000 C   0  0
   -1.4344    2.2776    0.0000 C   0  0
    0.4443    2.9272    0.0000 C   0  0
    0.8198    2.2760    0.0000 N   0  0
    2.6953    1.6305    0.0000 C   0  0
    3.0698    2.2784    0.0000 C   0  0
    3.0708    0.9818    0.0000 C   0  0
    1.9453    1.6300    0.0000 N   0  0
    3.8198    2.2779    0.0000 C   0  0
    3.8208    0.9823    0.0000 C   0  0
    1.5698    2.2754    0.0000 C   0  0
    4.1953    1.6316    0.0000 C   0  0
    1.9444    2.9261    0.0000 O   0  0
    4.9453    1.6322    0.0000 O   0  0
    5.3208    0.9792    0.0000 C   0  0
 16 19  1  0
 19 20  1  0
  5  1  1  0
  9 10  1  0
  1  2  2  0
 10 11  1  0
  1  6  1  0
 10 12  2  0
 10 13  2  0
  6  7  1  0
 11 14  2  0
  2  3  1  0
 14 15  1  0
  6  8  1  0
 15 16  2  0
  3  4  2  0
 16 17  1  0
  4  9  1  0
 17 18  2  0
 18 11  1  0
  4  5  1  0
 21 22  1  0
 21 23  2  0
 21 24  1  0
 22 25  2  0
 23 26  1  0
 24 27  1  0
 25 28  1  0
 27 29  2  0
 28 30  1  0
 30 31  1  0
 26 28  2  0
 20 27  1  0
M  END
>  <ID_NEW>
CPDPP3502

>  <pEC50>
4.481486060122112

$$$$

  SciTegic12180813022D

 34 37  0  0  0  0            999 V2000
   -1.7074    3.3125    0.0000 C   0  0
   -0.9919    3.7232    0.0000 C   0  0
   -0.2785    3.3090    0.0000 C   0  0
   -0.2840    2.4865    0.0000 C   0  0
    0.4286    2.0723    0.0000 C   0  0
    1.1451    2.4831    0.0000 C   0  0
    1.1445    3.3124    0.0000 C   0  0
    0.4313    3.7228    0.0000 C   0  0
    1.8623    2.0706    0.0000 S   0  0
    1.8613    1.2456    0.0000 N   0  0
    2.7772    2.1282    0.0000 O   0  0
    2.0277    2.9091    0.0000 O   0  0
    2.5753    0.8323    0.0000 C   0  0
    2.6617    0.0123    0.0000 S   0  0
    3.4685   -0.1601    0.0000 C   0  0
    3.8819    0.5540    0.0000 N   0  0
    3.3304    1.1676    0.0000 N   0  0
    3.8032   -0.9142    0.0000 C   0  0
    3.3176   -1.5811    0.0000 C   0  0
    4.6236   -1.0013    0.0000 C   0  0
   -3.8180    2.1245    0.0000 C   0  0
   -3.8119    1.2895    0.0000 C   0  0
   -3.0978    2.5455    0.0000 C   0  0
   -4.5850    2.3762    0.0000 O   0  0
   -4.5753    1.0470    0.0000 C   0  0
   -3.0857    0.8961    0.0000 C   0  0
   -2.3722    2.1350    0.0000 C   0  0
   -3.1038    3.3642    0.0000 C   0  0
   -5.0452    1.6962    0.0000 C   0  0
   -2.3661    1.3000    0.0000 C   0  0
   -2.4209    3.7267    0.0000 N   0  0
   -3.7890    3.7962    0.0000 O   0  0
   -5.8316    1.2334    0.0000 C   0  0
   -5.8132    2.0975    0.0000 C   0  0
  5  6  2  0
  6  7  1  0
  7  8  2  0
  8  3  1  0
  9 10  1  0
  9 11  2  0
  6  9  1  0
  9 12  2  0
 10 13  1  0
 13 14  1  0
 14 15  1  0
 15 16  2  0
 16 17  1  0
 17 13  2  0
 15 18  1  0
 18 19  1  0
 18 20  1  0
 31  1  1  0
  1  2  1  0
  2  3  1  0
  3  4  2  0
  4  5  1  0
 21 22  2  0
 21 23  1  0
 21 24  1  0
 22 25  1  0
 22 26  1  0
 23 27  2  0
 23 28  1  0
 24 29  1  0
 26 30  2  0
 28 31  1  0
 28 32  2  0
 29 33  1  0
 29 34  1  0
 25 29  1  0
 27 30  1  0
M  END
>  <ID_NEW>
CPDPP3503

>  <pEC50>
4.481486060122112

$$$$

  SciTegic12180813062D

 27 29  0  0  0  0            999 V2000
    6.4641   -3.6954    0.0000 N   0  0
    6.8754   -4.4098    0.0000 C   0  0
    7.6750   -4.5821    0.0000 S   0  0
    6.4591   -5.1274    0.0000 N   0  0
    7.0111   -5.7424    0.0000 N   0  0
    7.7622   -5.4049    0.0000 C   0  0
    8.4710   -5.8231    0.0000 C   0  0
    9.1869   -5.4100    0.0000 C   0  0
    8.4745   -6.6507    0.0000 C   0  0
    6.8781   -2.9842    0.0000 S   0  0
    7.5883   -3.3929    0.0000 O   0  0
    7.2902   -2.2697    0.0000 O   0  0
    6.1655   -2.5732    0.0000 C   0  0
    6.1704   -1.7466    0.0000 C   0  0
    5.4567   -1.3281    0.0000 C   0  0
    3.2971   -4.2217    0.0000 N   0  0
    3.2976   -5.0488    0.0000 C   0  0
    2.5805   -5.4641    0.0000 C   0  0
    4.0157   -5.4587    0.0000 O   0  0
    4.0153   -3.8082    0.0000 C   0  0
    5.4509   -2.9785    0.0000 C   0  0
    3.3024   -2.5566    0.0000 C   0  0
    4.0179   -2.9722    0.0000 C   0  0
    4.7365   -2.5615    0.0000 C   0  0
    4.7377   -1.7389    0.0000 C   0  0
    4.0242   -1.3197    0.0000 C   0  0
    3.3074   -1.7269    0.0000 C   0  0
  1  2  1  0
  2  3  1  0
  3  6  1  0
 13 10  1  0
 10 11  2  0
 10  1  1  0
 10 12  2  0
 21 13  2  0
 13 14  1  0
 20 16  1  0
 16 17  1  0
 17 18  1  0
 17 19  2  0
 14 15  2  0
 15 25  1  0
 23 20  1  0
 21 24  1  0
 22 23  1  0
 22 27  1  0
 23 24  1  0
 24 25  2  0
 25 26  1  0
 26 27  1  0
  5  4  1  0
  4  2  2  0
  5  6  2  0
  6  7  1  0
  7  8  1  0
  7  9  1  0
M  END
>  <ID_NEW>
CPDPP3504

>  <pEC50>
4.481486060122112

$$$$

  SciTegic12180813082D

 20 21  0  0  0  0            999 V2000
   -3.3639    2.0940    0.0000 C   0  0
   -3.7751    2.8054    0.0000 S   0  0
   -3.9226    1.4789    0.0000 N   0  0
   -4.6661    1.8114    0.0000 N   0  0
   -4.5854    2.6327    0.0000 C   0  0
   -5.2092    3.1771    0.0000 C   0  0
   -5.8323    3.7177    0.0000 F   0  0
   -4.6705    3.7981    0.0000 F   0  0
   -5.7513    2.5550    0.0000 F   0  0
   -1.3973    2.3960    0.0000 C   0  0
   -1.3985    1.5727    0.0000 C   0  0
   -0.6837    1.1599    0.0000 C   0  0
   -0.6855    2.8088    0.0000 C   0  0
   -2.1202    2.8165    0.0000 S   0  0
   -2.8412    3.2332    0.0000 O   0  0
   -2.5347    2.0956    0.0000 N   0  0
   -1.7037    3.5334    0.0000 O   0  0
    0.0299    2.3996    0.0000 C   0  0
    0.0330    1.5710    0.0000 C   0  0
    0.7523    1.1514    0.0000 Br  0  0
  2  5  1  0
  4  3  1  0
  3  1  2  0
  4  5  2  0
  5  6  1  0
  6  7  1  0
  6  8  1  0
  6  9  1  0
 16  1  1  0
  1  2  1  0
 12 19  2  0
 18 13  2  0
 13 10  1  0
 10 11  2  0
 11 12  1  0
 10 14  1  0
 14 15  2  0
 14 16  1  0
 14 17  2  0
 18 19  1  0
 19 20  1  0
M  END
>  <ID_NEW>
CPDPP3505

>  <pEC50>
4.481486060122112

$$$$
