
  SciTegic12180813542D

 33 37  0  0  0  0            999 V2000
   11.0444   -5.0833    0.0000 C   0  0
   11.0391   -5.9065    0.0000 C   0  0
   11.7482   -6.3209    0.0000 C   0  0
   12.4631   -5.9132    0.0000 C   0  0
   12.4645   -5.0869    0.0000 C   0  0
   11.7547   -4.6762    0.0000 C   0  0
    8.8375   -2.6959    0.0000 N   0  0
    8.8333   -1.8709    0.0000 C   0  0
    8.1207   -1.4642    0.0000 C   0  0
    7.4077   -1.8781    0.0000 N   0  0
    7.4119   -2.7031    0.0000 C   0  0
    8.1291   -3.1142    0.0000 C   0  0
    6.7986   -4.2625    0.0000 C   0  0
    6.7974   -5.0899    0.0000 C   0  0
    7.5122   -5.5027    0.0000 C   0  0
    7.5104   -3.8497    0.0000 N   0  0
    9.0171   -4.0002    0.0000 C   0  0
    8.2258   -4.2589    0.0000 C   0  0
    8.2284   -5.0920    0.0000 C   0  0
    9.0222   -5.3457    0.0000 N   0  0
    9.5075   -4.6684    0.0000 C   0  0
    9.4250   -3.2834    0.0000 C   0  0
   10.2500   -3.2834    0.0000 O   0  0
   10.3292   -4.6667    0.0000 O   0  0
   11.7564   -3.8512    0.0000 C   0  0
   10.3222   -6.3148    0.0000 C   0  0
   11.7438   -7.1459    0.0000 F   0  0
    9.0167   -6.1667    0.0000 C   0  0
    8.3006   -6.5705    0.0000 C   0  0
    8.2947   -7.3908    0.0000 C   0  0
    9.0035   -7.8069    0.0000 C   0  0
    9.7196   -7.3968    0.0000 C   0  0
    9.7220   -6.5779    0.0000 C   0  0
 11 12  1  0
  6  1  1  0
  7  8  1  0
 13 14  2  0
  1  2  2  0
 14 15  1  0
 15 19  2  0
 21 24  1  0
 24  1  1  0
  3  4  2  0
  6 25  1  0
 18 16  2  0
  2 26  1  0
 16 13  1  0
  3 27  1  0
 18 19  1  0
 20 28  1  0
 28 29  2  0
  4  5  1  0
 29 30  1  0
  2  3  1  0
 30 31  2  0
  5  6  2  0
 31 32  1  0
  7 12  1  0
 32 33  2  0
 33 28  1  0
 17 18  1  0
 19 20  1  0
 20 21  1  0
 21 17  2  0
  8  9  1  0
 17 22  1  0
  9 10  1  0
 22 23  2  0
 22  7  1  0
 10 11  1  0
M  END
>  <ID_NEW>
CPDRE1001

>  <pIC50>
8.999999999999998

$$$$

  SciTegic12180813542D

 33 37  0  0  0  0            999 V2000
   -1.6998    0.6936    0.0000 C   0  0
   -1.2933   -0.0179    0.0000 C   0  0
   -0.4758   -0.0207    0.0000 C   0  0
   -0.0637    0.6874    0.0000 C   0  0
   -0.4751    1.3996    0.0000 C   0  0
   -1.2914    1.3989    0.0000 C   0  0
   -5.8306    1.0959    0.0000 C   0  0
   -5.8318    0.2685    0.0000 C   0  0
   -5.1169   -0.1444    0.0000 N   0  0
   -5.1187    1.5086    0.0000 C   0  0
   -3.6120    1.3581    0.0000 N   0  0
   -4.4034    1.0995    0.0000 C   0  0
   -4.4008    0.2664    0.0000 C   0  0
   -3.6070    0.0127    0.0000 C   0  0
   -3.1216    0.6899    0.0000 C   0  0
   -3.6167    2.1833    0.0000 C   0  0
   -2.9020    2.5981    0.0000 C   0  0
   -2.9063    3.4225    0.0000 C   0  0
   -3.6238    3.8319    0.0000 C   0  0
   -4.3385    3.4109    0.0000 C   0  0
   -4.3307    2.5878    0.0000 C   0  0
   -2.1917    2.1875    0.0000 F   0  0
   -3.2000   -0.6958    0.0000 C   0  0
   -3.9167   -1.1042    0.0000 O   0  0
   -2.4875   -1.1083    0.0000 N   0  0
   -2.4905   -1.9326    0.0000 C   0  0
   -1.7821   -2.3450    0.0000 C   0  0
   -1.0662   -1.9377    0.0000 N   0  0
   -1.0632   -1.1135    0.0000 C   0  0
   -1.7761   -0.6965    0.0000 C   0  0
   -2.4125    1.1083    0.0000 C   0  0
   -1.7037    2.1134    0.0000 C   0  0
    0.1042    1.9875    0.0000 F   0  0
  1  2  2  0
  2  3  1  0
  3  4  2  0
  4  5  1  0
  5  6  2  0
  6  1  1  0
  7  8  2  0
  8  9  1  0
  9 13  2  0
 12 10  2  0
 10  7  1  0
 12 13  1  0
 11 12  1  0
 13 14  1  0
 14 15  2  0
 15 11  1  0
 11 16  1  0
 16 17  2  0
 17 18  1  0
 18 19  2  0
 19 20  1  0
 20 21  2  0
 21 16  1  0
 17 22  1  0
 14 23  1  0
 23 24  2  0
 23 25  1  0
 25 26  1  0
 25 30  1  0
 26 27  1  0
 27 28  1  0
 28 29  1  0
 29 30  1  0
 15 31  1  0
 31  1  1  0
  6 32  1  0
  5 33  1  0
M  END
>  <ID_NEW>
CPDRE1002

>  <pIC50>
8.999999999999998

$$$$

  SciTegic12180813492D

 33 37  0  0  0  0            999 V2000
   -0.1327    0.5823    0.0000 C   0  0
    0.5683    1.0218    0.0000 C   0  0
    0.5373    1.8467    0.0000 C   0  0
   -0.1941    2.2331    0.0000 C   0  0
   -0.8956    1.7885    0.0000 C   0  0
   -0.8610    0.9651    0.0000 C   0  0
   -1.5581    0.5238    0.0000 O   0  0
   -0.1013   -0.2421    0.0000 C   0  0
   -0.2266    3.0574    0.0000 F   0  0
   -4.6167    3.4160    0.0000 N   0  0
   -4.6192    2.5901    0.0000 C   0  0
   -3.8907    3.8315    0.0000 C   0  0
   -3.9040    2.1708    0.0000 C   0  0
   -3.1744    3.4169    0.0000 C   0  0
   -3.1781    2.5863    0.0000 N   0  0
   -5.0948    0.9274    0.0000 C   0  0
   -5.0960    0.1000    0.0000 C   0  0
   -4.3812   -0.3128    0.0000 C   0  0
   -4.3830    1.3402    0.0000 C   0  0
   -2.8763    1.1897    0.0000 C   0  0
   -3.6676    0.9310    0.0000 C   0  0
   -3.6650    0.0979    0.0000 C   0  0
   -2.8712   -0.1558    0.0000 N   0  0
   -2.3859    0.5215    0.0000 C   0  0
   -2.4506   -0.8749    0.0000 C   0  0
   -1.6333   -0.8602    0.0000 C   0  0
   -2.8640   -1.5801    0.0000 C   0  0
   -1.2140   -1.5769    0.0000 C   0  0
   -2.4448   -2.2968    0.0000 C   0  0
   -1.6174   -2.2994    0.0000 C   0  0
   -5.8094    1.3397    0.0000 O   0  0
   -2.6240    1.9751    0.0000 C   0  0
   -1.8176    2.1493    0.0000 O   0  0
  4  5  1  0
  2  3  1  0
  5  6  2  0
  6  1  1  0
  1  2  2  0
  6  7  1  0
  3  4  2  0
  1  8  1  0
  4  9  1  0
 10 11  1  0
 10 12  1  0
 11 13  1  0
 12 14  1  0
 13 15  1  0
 14 15  1  0
 17 18  2  0
 18 22  1  0
 16 17  1  0
 21 19  1  0
 20 21  1  0
 24  7  1  0
 20 32  1  0
 32 33  2  0
 32 15  1  0
 22 23  1  0
 23 24  1  0
 24 20  2  0
 25 26  1  0
 25 27  2  0
 25 23  1  0
 26 28  2  0
 27 29  1  0
 28 30  1  0
 29 30  2  0
 16 31  1  0
 19 16  2  0
 21 22  2  0
M  END
>  <ID_NEW>
CPDRE1003

>  <pIC50>
8.698970004336019

$$$$

  SciTegic12180813512D

 34 38  0  0  0  0            999 V2000
    9.9777   -3.9000    0.0000 C   0  0
    9.9724   -4.7232    0.0000 C   0  0
   10.6815   -5.1376    0.0000 C   0  0
   11.3964   -4.7299    0.0000 C   0  0
   11.3978   -3.9035    0.0000 C   0  0
   10.6880   -3.4929    0.0000 C   0  0
    7.8541   -1.6917    0.0000 N   0  0
    8.0666   -0.8917    0.0000 C   0  0
    7.4833   -0.3109    0.0000 C   0  0
    6.6842   -0.5245    0.0000 N   0  0
    6.4717   -1.3245    0.0000 C   0  0
    7.0583   -1.9109    0.0000 C   0  0
    5.9718   -3.3269    0.0000 C   0  0
    5.9706   -4.1543    0.0000 C   0  0
    6.6854   -4.5671    0.0000 C   0  0
    6.6836   -2.9141    0.0000 C   0  0
    8.1903   -3.0646    0.0000 C   0  0
    7.3990   -3.3233    0.0000 C   0  0
    7.4016   -4.1564    0.0000 C   0  0
    8.1954   -4.4101    0.0000 N   0  0
    8.6807   -3.7328    0.0000 C   0  0
    8.6160   -5.1292    0.0000 C   0  0
    9.4333   -5.1145    0.0000 C   0  0
    8.2026   -5.8344    0.0000 C   0  0
    9.8526   -5.8312    0.0000 C   0  0
    8.6218   -6.5511    0.0000 C   0  0
    9.4492   -6.5537    0.0000 C   0  0
    5.2572   -2.9146    0.0000 O   0  0
    8.4426   -2.2792    0.0000 C   0  0
    9.2490   -2.1050    0.0000 O   0  0
    6.6791   -2.0875    0.0000 C   0  0
    9.3916   -3.3125    0.0000 C   0  0
   10.6833   -2.6667    0.0000 C   0  0
   12.1083   -3.4834    0.0000 F   0  0
  3  4  2  0
  4  5  1  0
  2  3  1  0
 19 20  1  0
 20 21  1  0
 21 17  2  0
 22 23  1  0
 22 24  2  0
 22 20  1  0
 23 25  2  0
 24 26  1  0
 25 27  1  0
 26 27  2  0
 13 28  1  0
 16 13  2  0
 18 19  2  0
 14 15  2  0
 15 19  1  0
 13 14  1  0
 18 16  1  0
 17 18  1  0
 17 29  1  0
 29 30  2  0
 16 31  1  0
 29  7  1  0
  7  8  1  0
  7 12  1  0
  8  9  1  0
  9 10  1  0
 10 11  1  0
 11 12  1  0
  5  6  2  0
 21 32  1  0
 32  1  1  0
  6  1  1  0
  6 33  1  0
  1  2  2  0
  5 34  1  0
M  END
>  <ID_NEW>
CPDRE1004

>  <pIC50>
8.698970004336019

$$$$

  SciTegic12180813542D

 33 37  0  0  0  0            999 V2000
    5.4432   -2.6922    0.0000 C   0  0
    5.2259   -3.4860    0.0000 C   0  0
    5.8041   -4.0690    0.0000 C   0  0
    6.5997   -3.8595    0.0000 C   0  0
    6.8140   -3.0616    0.0000 C   0  0
    6.2343   -2.4820    0.0000 C   0  0
    1.2277   -2.0916    0.0000 C   0  0
    1.2265   -2.9190    0.0000 N   0  0
    1.9413   -3.3318    0.0000 C   0  0
    1.9395   -1.6788    0.0000 C   0  0
    2.6549   -2.0880    0.0000 C   0  0
    2.6598   -2.9190    0.0000 C   0  0
    3.4517   -3.1712    0.0000 N   0  0
    3.9362   -2.4960    0.0000 C   0  0
    3.4438   -1.8266    0.0000 C   0  0
    3.6941   -1.0405    0.0000 C   0  0
    3.7112   -3.9543    0.0000 C   0  0
    3.1610   -4.5703    0.0000 C   0  0
    3.4199   -5.3528    0.0000 C   0  0
    4.2287   -5.5202    0.0000 C   0  0
    4.7780   -4.8990    0.0000 C   0  0
    4.5161   -4.1189    0.0000 C   0  0
    4.7291   -2.2792    0.0000 O   0  0
    6.4486   -1.6853    0.0000 C   0  0
    4.4280   -3.6957    0.0000 C   0  0
    5.5871   -4.8650    0.0000 F   0  0
    4.4042   -0.6208    0.0000 O   0  0
    3.1042   -0.4500    0.0000 N   0  0
    3.3228    0.3566    0.0000 C   0  0
    2.7368    0.9459    0.0000 C   0  0
    1.9290    0.7343    0.0000 N   0  0
    1.7104   -0.0723    0.0000 C   0  0
    2.2996   -0.6673    0.0000 C   0  0
 13 14  1  0
 14 15  2  0
 15 11  1  0
 15 16  1  0
 13 17  1  0
 17 18  2  0
 18 19  1  0
 19 20  2  0
 20 21  1  0
 21 22  2  0
 22 17  1  0
  5  6  2  0
 14 23  1  0
 23  1  1  0
  6  1  1  0
  1  2  2  0
  3  4  2  0
  4  5  1  0
  6 24  1  0
  2  3  1  0
  2 25  1  0
  7  8  2  0
  3 26  1  0
 16 27  2  0
  8  9  1  0
 16 28  1  0
 28 29  1  0
  9 12  2  0
 11 10  2  0
 10  7  1  0
 11 12  1  0
 12 13  1  0
 28 33  1  0
 29 30  1  0
 30 31  1  0
 31 32  1  0
 32 33  1  0
M  END
>  <ID_NEW>
CPDRE1005

>  <pIC50>
8.698970004336019

$$$$

  SciTegic12180813562D

 36 40  0  0  0  0            999 V2000
   -0.2249    0.2874    0.0000 C   0  0
   -0.2249   -0.5043    0.0000 C   0  0
    0.4580   -0.8959    0.0000 C   0  0
    0.4580    0.6833    0.0000 N   0  0
    1.1366    0.2874    0.0000 N   0  0
    1.1453   -0.5049    0.0000 C   0  0
    1.8904   -0.7420    0.0000 C   0  0
    2.3530   -0.1039    0.0000 C   0  0
    1.8831    0.5288    0.0000 C   0  0
    3.1405   -0.0951    0.0000 C   0  0
   -0.9096   -0.9053    0.0000 C   0  0
   -0.9084   -1.6928    0.0000 O   0  0
   -1.5977   -0.5102    0.0000 N   0  0
    2.1309   -1.4860    0.0000 C   0  0
    1.6084   -2.0637    0.0000 C   0  0
    1.8526   -2.8072    0.0000 C   0  0
    2.6187   -2.9709    0.0000 C   0  0
    3.1402   -2.3824    0.0000 C   0  0
    2.8938   -1.6406    0.0000 C   0  0
    2.1345    1.3146    0.0000 C   0  0
    1.5797    1.9252    0.0000 O   0  0
    3.5610   -0.8049    0.0000 C   0  0
    3.1517   -1.5217    0.0000 C   0  0
    3.5714   -2.2310    0.0000 C   0  0
    4.3973   -2.2223    0.0000 C   0  0
    4.8015   -1.4982    0.0000 C   0  0
    4.3794   -0.7918    0.0000 C   0  0
    4.7808   -0.0710    0.0000 C   0  0
    5.6264   -1.4861    0.0000 F   0  0
    2.9407    1.4898    0.0000 N   0  0
    3.4939    0.8730    0.0000 C   0  0
    4.2970    1.0455    0.0000 C   0  0
    4.5525    1.8303    0.0000 N   0  0
    3.9985    2.4429    0.0000 C   0  0
    3.1890    2.2707    0.0000 C   0  0
   -2.3166   -0.9166    0.0000 C   0  0
  1  4  2  0
 11 13  1  0
  9 20  1  0
  2  3  2  0
 20 21  2  0
  3  6  1  0
 10 22  1  0
 22 23  2  0
  6  7  2  0
 23 24  1  0
  7 14  1  0
 24 25  2  0
  7  8  1  0
 25 26  1  0
 14 15  2  0
 26 27  2  0
 27 22  1  0
  8  9  2  0
 27 28  1  0
 15 16  1  0
 26 29  1  0
 20 30  1  0
 30 31  1  0
  9  5  1  0
 16 17  2  0
  5  4  1  0
 17 18  1  0
 30 35  1  0
 31 32  1  0
 32 33  1  0
 33 34  1  0
 34 35  1  0
  8 10  1  0
 18 19  2  0
 19 14  1  0
  5  6  1  0
  2 11  1  0
 11 12  2  0
  1  2  1  0
 13 36  1  0
M  END
>  <ID_NEW>
CPDRE1006

>  <pIC50>
8.698970004336019

$$$$

  SciTegic12180813522D

 34 38  0  0  0  0            999 V2000
    3.0777   -5.3374    0.0000 C   0  0
    3.0766   -6.1648    0.0000 C   0  0
    3.7914   -6.5777    0.0000 C   0  0
    3.7896   -4.9247    0.0000 C   0  0
    5.2949   -6.4202    0.0000 N   0  0
    5.7827   -5.7484    0.0000 C   0  0
    5.2944   -5.0770    0.0000 C   0  0
    4.5050   -5.3338    0.0000 C   0  0
    4.5052   -6.1640    0.0000 C   0  0
    5.5501   -7.2047    0.0000 C   0  0
    4.9958   -7.8164    0.0000 C   0  0
    5.2505   -8.6003    0.0000 C   0  0
    6.0583   -8.7722    0.0000 C   0  0
    6.6110   -8.1540    0.0000 C   0  0
    6.3534   -7.3724    0.0000 C   0  0
    2.3632   -4.9251    0.0000 O   0  0
    2.3618   -6.5767    0.0000 Cl  0  0
    5.5490   -4.2922    0.0000 C   0  0
    6.3559   -4.1204    0.0000 O   0  0
    4.9967   -3.6794    0.0000 N   0  0
    5.2543   -2.8951    0.0000 C   0  0
    4.7059   -2.2836    0.0000 C   0  0
    3.8978   -2.4514    0.0000 N   0  0
    3.6411   -3.2365    0.0000 C   0  0
    4.1924   -3.8537    0.0000 C   0  0
    6.6077   -5.7481    0.0000 O   0  0
    7.4291   -5.7458    0.0000 C   0  0
    7.8400   -6.4584    0.0000 C   0  0
    8.6607   -6.4564    0.0000 C   0  0
    9.0703   -5.7433    0.0000 C   0  0
    8.6531   -5.0307    0.0000 C   0  0
    7.8338   -5.0362    0.0000 C   0  0
    7.4282   -7.1732    0.0000 C   0  0
    9.0611   -4.3136    0.0000 F   0  0
  2 17  1  0
  7 18  1  0
 18 19  2  0
 18 20  1  0
 20 21  1  0
  1  2  2  0
  2  3  1  0
  3  9  2  0
  8  4  2  0
 20 25  1  0
 21 22  1  0
 22 23  1  0
 23 24  1  0
 24 25  1  0
  4  1  1  0
  8  9  1  0
  6  7  2  0
  5  6  1  0
  7  8  1  0
  9  5  1  0
  5 10  1  0
  6 26  1  0
 10 11  2  0
 26 27  1  0
 11 12  1  0
 27 28  2  0
 12 13  2  0
 28 29  1  0
 13 14  1  0
 29 30  2  0
 14 15  2  0
 30 31  1  0
 15 10  1  0
 31 32  2  0
 32 27  1  0
  1 16  1  0
 28 33  1  0
 31 34  1  0
M  END
>  <ID_NEW>
CPDRE1007

>  <pIC50>
8.698970004336019

$$$$

  -MTS-   10172316392D 0   0.00000     0.00000     0

 43 47  0  0  1  0  0  0  0  0999 V2000
   -0.8960    0.3540    0.0000 C   0  0  0  0  0  0  0  0  0  0  0  0
   -0.8960   -0.4710    0.0000 C   0  0  0  0  0  0  0  0  0  0  0  0
   -0.1840   -0.8790    0.0000 C   0  0  0  0  0  0  0  0  0  0  0  0
   -0.1840    0.7710    0.0000 C   0  0  0  0  0  0  0  0  0  0  0  0
    0.5280    0.3540    0.0000 N   0  0  0  0  0  0  0  0  0  0  0  0
    0.5330   -0.4670    0.0000 C   0  0  0  0  0  0  0  0  0  0  0  0
    1.3150   -0.7170    0.0000 C   0  0  0  0  0  0  0  0  0  0  0  0
    1.7950   -0.0500    0.0000 C   0  0  0  0  0  0  0  0  0  0  0  0
    1.3080    0.6120    0.0000 C   0  0  0  0  0  0  0  0  0  0  0  0
    2.6200   -0.0450    0.0000 C   0  0  0  0  0  0  0  0  0  0  0  0
    3.0360   -0.7570    0.0000 C   0  0  0  0  0  0  0  0  0  0  0  0
    1.5590    1.3980    0.0000 C   0  0  0  0  0  0  0  0  0  0  0  0
    2.3650    1.5740    0.0000 N   0  0  0  0  0  0  0  0  0  0  0  0
    1.0030    2.0080    0.0000 O   0  0  0  0  0  0  0  0  0  0  0  0
    1.5740   -1.5000    0.0000 C   0  0  0  0  0  0  0  0  0  0  0  0
    1.0230   -2.1150    0.0000 C   0  0  0  0  0  0  0  0  0  0  0  0
    1.2820   -2.8980    0.0000 C   0  0  0  0  0  0  0  0  0  0  0  0
    2.0910   -3.0660    0.0000 C   0  0  0  0  0  0  0  0  0  0  0  0
    2.6400   -2.4450    0.0000 C   0  0  0  0  0  0  0  0  0  0  0  0
    2.3790   -1.6640    0.0000 C   0  0  0  0  0  0  0  0  0  0  0  0
    2.6240   -1.4690    0.0000 C   0  0  0  0  0  0  0  0  0  0  0  0
    3.0390   -2.1810    0.0000 C   0  0  0  0  0  0  0  0  0  0  0  0
    3.8650   -2.1770    0.0000 C   0  0  0  0  0  0  0  0  0  0  0  0
    4.2740   -1.4550    0.0000 C   0  0  0  0  0  0  0  0  0  0  0  0
    3.8560   -0.7470    0.0000 C   0  0  0  0  0  0  0  0  0  0  0  0
    4.2600   -0.0280    0.0000 C   0  0  0  0  0  0  0  0  0  0  0  0
    5.0990   -1.4480    0.0000 F   0  0  0  0  0  0  0  0  0  0  0  0
   -1.6100   -0.8840    0.0000 C   0  0  0  0  0  0  0  0  0  0  0  0
   -2.3250   -0.4730    0.0000 N   0  0  0  0  0  0  0  0  0  0  0  0
   -1.6080   -1.7090    0.0000 O   0  0  0  0  0  0  0  0  0  0  0  0
    2.9200    0.9580    0.0000 C   0  0  0  0  0  0  0  0  0  0  0  0
    3.7230    1.1310    0.0000 C   0  0  1  0  0  0  0  0  0  0  0  0
    3.9780    1.9160    0.0000 N   0  0  0  0  0  0  0  0  0  0  0  0
    3.4230    2.5280    0.0000 C   0  0  0  0  0  0  0  0  0  0  0  0
    2.6140    2.3550    0.0000 C   0  0  0  0  0  0  0  0  0  0  0  0
    3.9330    0.3370    0.0000 C   0  0  0  0  0  0  0  0  0  0  0  0
    4.7580    0.3370    0.0000 C   0  0  0  0  0  0  0  0  0  0  0  0
    4.9710   -0.4580    0.0000 N   0  0  0  0  0  0  0  0  0  0  0  0
    5.2610    0.9920    0.0000 O   0  0  0  0  0  0  0  0  0  0  0  0
    5.7960   -0.4580    0.0000 C   0  0  0  0  0  0  0  0  0  0  0  0
    6.2040   -1.1710    0.0000 C   0  0  0  0  0  0  0  0  0  0  0  0
   -2.3260    0.3520    0.0000 C   0  0  0  0  0  0  0  0  0  0  0  0
   -3.0390   -0.8860    0.0000 C   0  0  0  0  0  0  0  0  0  0  0  0
 25 11  1  0  0  0  0
  9 12  1  0  0  0  0
 25 26  1  0  0  0  0
  1  2  1  0  0  0  0
 24 27  1  0  0  0  0
 12 13  1  0  0  0  0
  2 28  1  0  0  0  0
  1  4  2  0  0  0  0
 28 29  1  0  0  0  0
 12 14  2  0  0  0  0
 28 30  2  0  0  0  0
  2  3  2  0  0  0  0
 13 31  1  0  0  0  0
  7 15  1  0  0  0  0
  3  6  1  0  0  0  0
 15 16  2  0  0  0  0
  6  7  2  0  0  0  0
 16 17  1  0  0  0  0
 13 35  1  0  0  0  0
 31 32  1  0  0  0  0
 32 33  1  0  0  0  0
 33 34  1  0  0  0  0
 34 35  1  0  0  0  0
  7  8  1  0  0  0  0
 17 18  2  0  0  0  0
  8  9  2  0  0  0  0
 18 19  1  0  0  0  0
  9  5  1  0  0  0  0
 19 20  2  0  0  0  0
 20 15  1  0  0  0  0
  5  4  1  0  0  0  0
 32 36  1  1  0  0  0
 11 21  2  0  0  0  0
 36 37  1  0  0  0  0
  8 10  1  0  0  0  0
 37 38  1  0  0  0  0
 21 22  1  0  0  0  0
 37 39  2  0  0  0  0
  5  6  1  0  0  0  0
 38 40  1  0  0  0  0
 22 23  2  0  0  0  0
 40 41  1  0  0  0  0
 10 11  1  0  0  0  0
 23 24  1  0  0  0  0
 29 42  1  0  0  0  0
 24 25  2  0  0  0  0
 29 43  1  0  0  0  0
M  END
>  <ID_NEW>
CPDRE1008

>  <pIC50>
8.698970004336019

$$$$

  -MTS-   10172316392D 0   0.00000     0.00000     0

 45 49  0  0  1  0  0  0  0  0999 V2000
    1.3750   -2.4750    0.0000 C   0  0  0  0  0  0  0  0  0  0  0  0
    1.3750   -3.3000    0.0000 C   0  0  0  0  0  0  0  0  0  0  0  0
    2.0870   -3.7080    0.0000 C   0  0  0  0  0  0  0  0  0  0  0  0
    2.0870   -2.0580    0.0000 C   0  0  0  0  0  0  0  0  0  0  0  0
    2.7990   -2.4750    0.0000 N   0  0  0  0  0  0  0  0  0  0  0  0
    2.8040   -3.2960    0.0000 C   0  0  0  0  0  0  0  0  0  0  0  0
    3.5860   -3.5460    0.0000 C   0  0  0  0  0  0  0  0  0  0  0  0
    4.0650   -2.8790    0.0000 C   0  0  0  0  0  0  0  0  0  0  0  0
    3.5790   -2.2170    0.0000 C   0  0  0  0  0  0  0  0  0  0  0  0
    4.8900   -2.8740    0.0000 C   0  0  0  0  0  0  0  0  0  0  0  0
    5.3070   -3.5860    0.0000 C   0  0  0  0  0  0  0  0  0  0  0  0
    3.8300   -1.4310    0.0000 C   0  0  0  0  0  0  0  0  0  0  0  0
    4.6360   -1.2550    0.0000 N   0  0  0  0  0  0  0  0  0  0  0  0
    3.2740   -0.8210    0.0000 O   0  0  0  0  0  0  0  0  0  0  0  0
    3.8450   -4.3290    0.0000 C   0  0  0  0  0  0  0  0  0  0  0  0
    3.2940   -4.9440    0.0000 C   0  0  0  0  0  0  0  0  0  0  0  0
    3.5530   -5.7270    0.0000 C   0  0  0  0  0  0  0  0  0  0  0  0
    4.3620   -5.8950    0.0000 C   0  0  0  0  0  0  0  0  0  0  0  0
    4.9110   -5.2740    0.0000 C   0  0  0  0  0  0  0  0  0  0  0  0
    4.6500   -4.4940    0.0000 C   0  0  0  0  0  0  0  0  0  0  0  0
    4.8950   -4.2990    0.0000 C   0  0  0  0  0  0  0  0  0  0  0  0
    5.3100   -5.0100    0.0000 C   0  0  0  0  0  0  0  0  0  0  0  0
    6.1360   -5.0060    0.0000 C   0  0  0  0  0  0  0  0  0  0  0  0
    6.5450   -4.2840    0.0000 C   0  0  0  0  0  0  0  0  0  0  0  0
    6.1260   -3.5760    0.0000 C   0  0  0  0  0  0  0  0  0  0  0  0
    6.5310   -2.8570    0.0000 C   0  0  0  0  0  0  0  0  0  0  0  0
    7.3700   -4.2770    0.0000 F   0  0  0  0  0  0  0  0  0  0  0  0
    0.6610   -3.7130    0.0000 C   0  0  0  0  0  0  0  0  0  0  0  0
   -0.0540   -3.3020    0.0000 N   0  0  0  0  0  0  0  0  0  0  0  0
    0.6620   -4.5380    0.0000 O   0  0  0  0  0  0  0  0  0  0  0  0
    5.1910   -1.8710    0.0000 C   0  0  0  0  0  0  0  0  0  0  0  0
    5.9940   -1.6980    0.0000 C   0  0  1  0  0  0  0  0  0  0  0  0
    6.2490   -0.9130    0.0000 N   0  0  0  0  0  0  0  0  0  0  0  0
    5.6940   -0.3010    0.0000 C   0  0  0  0  0  0  0  0  0  0  0  0
    4.8850   -0.4740    0.0000 C   0  0  0  0  0  0  0  0  0  0  0  0
    6.2040   -2.4920    0.0000 C   0  0  0  0  0  0  0  0  0  0  0  0
    7.0290   -2.4920    0.0000 C   0  0  0  0  0  0  0  0  0  0  0  0
    7.2420   -3.2870    0.0000 N   0  0  0  0  0  0  0  0  0  0  0  0
    7.5320   -1.8370    0.0000 O   0  0  0  0  0  0  0  0  0  0  0  0
    8.0670   -3.2870    0.0000 C   0  0  0  0  0  0  0  0  0  0  0  0
    8.4750   -4.0000    0.0000 C   0  0  0  0  0  0  0  0  0  0  0  0
    9.3000   -4.0020    0.0000 O   0  0  0  0  0  0  0  0  0  0  0  0
    9.7100   -4.7180    0.0000 C   0  0  0  0  0  0  0  0  0  0  0  0
   -0.7680   -3.7160    0.0000 C   0  0  0  0  0  0  0  0  0  0  0  0
   -0.0550   -2.4770    0.0000 C   0  0  0  0  0  0  0  0  0  0  0  0
 25 26  1  0  0  0  0
  1  2  1  0  0  0  0
 24 27  1  0  0  0  0
 12 13  1  0  0  0  0
  2 28  1  0  0  0  0
  1  4  2  0  0  0  0
 28 29  1  0  0  0  0
 12 14  2  0  0  0  0
 28 30  2  0  0  0  0
  2  3  2  0  0  0  0
 13 31  1  0  0  0  0
  7 15  1  0  0  0  0
  3  6  1  0  0  0  0
 15 16  2  0  0  0  0
  6  7  2  0  0  0  0
 16 17  1  0  0  0  0
 13 35  1  0  0  0  0
 31 32  1  0  0  0  0
 32 33  1  0  0  0  0
 33 34  1  0  0  0  0
 34 35  1  0  0  0  0
  7  8  1  0  0  0  0
 17 18  2  0  0  0  0
  8  9  2  0  0  0  0
 18 19  1  0  0  0  0
  9  5  1  0  0  0  0
 19 20  2  0  0  0  0
 20 15  1  0  0  0  0
  5  4  1  0  0  0  0
 32 36  1  1  0  0  0
 11 21  2  0  0  0  0
 36 37  1  0  0  0  0
  8 10  1  0  0  0  0
 37 38  1  0  0  0  0
 21 22  1  0  0  0  0
 37 39  2  0  0  0  0
  5  6  1  0  0  0  0
 38 40  1  0  0  0  0
 22 23  2  0  0  0  0
 40 41  1  0  0  0  0
 10 11  1  0  0  0  0
 23 24  1  0  0  0  0
 41 42  1  0  0  0  0
 24 25  2  0  0  0  0
 42 43  1  0  0  0  0
 25 11  1  0  0  0  0
 29 44  1  0  0  0  0
  9 12  1  0  0  0  0
 29 45  1  0  0  0  0
M  END
>  <ID_NEW>
CPDRE1009

>  <pIC50>
8.698970004336019

$$$$

  SciTegic12180813512D

 32 36  0  0  0  0            999 V2000
    7.3277   -3.4791    0.0000 C   0  0
    7.3224   -4.3023    0.0000 C   0  0
    8.0315   -4.7167    0.0000 C   0  0
    8.7464   -4.3090    0.0000 C   0  0
    8.7478   -3.4826    0.0000 C   0  0
    8.0380   -3.0720    0.0000 C   0  0
    3.1818   -3.0708    0.0000 C   0  0
    3.1806   -3.9023    0.0000 C   0  0
    3.8997   -4.3194    0.0000 C   0  0
    3.8979   -2.6580    0.0000 C   0  0
    4.6174   -3.0671    0.0000 C   0  0
    4.6223   -3.9024    0.0000 C   0  0
    5.4183   -4.1546    0.0000 N   0  0
    5.9029   -3.4793    0.0000 C   0  0
    5.4063   -2.8058    0.0000 C   0  0
    5.6607   -2.0156    0.0000 C   0  0
    6.4709   -1.8393    0.0000 O   0  0
    5.1010   -1.4015    0.0000 N   0  0
    5.6778   -4.9419    0.0000 C   0  0
    5.1209   -5.5594    0.0000 C   0  0
    5.3774   -6.3439    0.0000 C   0  0
    6.1889   -6.5150    0.0000 C   0  0
    6.7437   -5.8993    0.0000 C   0  0
    6.4868   -5.1083    0.0000 C   0  0
    5.3542   -0.6128    0.0000 C   0  0
    4.8025   -0.0001    0.0000 C   0  0
    3.9910   -0.1763    0.0000 N   0  0
    3.7343   -0.9669    0.0000 C   0  0
    4.2931   -1.5812    0.0000 C   0  0
    6.6125   -3.0625    0.0000 O   0  0
    8.0333   -2.2458    0.0000 C   0  0
    8.0250   -5.5416    0.0000 F   0  0
  5  6  2  0
  6  1  1  0
  1  2  2  0
  3  4  2  0
  8  9  1  0
  9 12  2  0
 11 10  2  0
 10  7  1  0
 11 12  1  0
  7  8  2  0
 12 13  1  0
 13 14  1  0
 14 15  2  0
 15 11  1  0
 15 16  1  0
 16 17  2  0
 16 18  1  0
 13 19  1  0
 19 20  1  0
 19 24  1  0
 20 21  1  0
 21 22  1  0
 22 23  1  0
 23 24  1  0
 18 25  1  0
 18 29  1  0
 25 26  1  0
 26 27  1  0
 27 28  1  0
 28 29  1  0
 14 30  1  0
 30  1  1  0
  4  5  1  0
  6 31  1  0
  2  3  1  0
  3 32  1  0
M  END
>  <ID_NEW>
CPDRE1010

>  <pIC50>
8.522878745280337

$$$$

  SciTegic12180813522D

 34 38  0  0  0  0            999 V2000
    5.3458    0.3833    0.0000 N   0  0
    5.7542   -0.3292    0.0000 C   0  0
    6.5708   -0.3318    0.0000 C   0  0
    6.9854    0.3764    0.0000 N   0  0
    6.5770    1.0889    0.0000 C   0  0
    5.7542    1.0932    0.0000 C   0  0
    3.5186   -2.2961    0.0000 C   0  0
    2.8029   -2.7025    0.0000 C   0  0
    2.7981   -3.5237    0.0000 C   0  0
    3.5082   -3.9393    0.0000 C   0  0
    4.2246   -3.5279    0.0000 C   0  0
    4.2259   -2.7081    0.0000 C   0  0
    5.5724   -1.7880    0.0000 C   0  0
    5.3551   -2.5818    0.0000 C   0  0
    5.9333   -3.1649    0.0000 C   0  0
    6.7289   -2.9554    0.0000 C   0  0
    6.9432   -2.1575    0.0000 C   0  0
    6.3635   -1.5778    0.0000 C   0  0
    2.8526   -0.9911    0.0000 C   0  0
    3.0657   -0.1932    0.0000 C   0  0
    2.4819    0.3884    0.0000 C   0  0
    1.6847    0.1732    0.0000 C   0  0
    1.4746   -0.6289    0.0000 C   0  0
    2.0600   -1.2070    0.0000 N   0  0
    3.5250   -1.4750    0.0000 N   0  0
    4.1943   -0.9925    0.0000 C   0  0
    3.9375   -0.2042    0.0000 C   0  0
    4.9875   -1.2042    0.0000 O   0  0
    4.5208    0.3833    0.0000 C   0  0
    4.1042    1.1000    0.0000 O   0  0
    0.6708   -0.8375    0.0000 O   0  0
    0.4542   -1.6333    0.0000 C   0  0
    6.5750   -0.7750    0.0000 C   0  0
    4.5292   -2.5792    0.0000 C   0  0
  9 10  2  0
 21 22  2  0
  1  6  1  0
 22 23  1  0
 10 11  1  0
 23 24  2  0
 24 19  1  0
  2  3  1  0
 11 12  2  0
 26 27  2  0
 12  7  1  0
 25 26  1  0
 27 20  1  0
 19 25  1  0
 25  7  1  0
  3  4  1  0
 26 28  1  0
 28 13  1  0
  4  5  1  0
 27 29  1  0
 13 14  2  0
 29 30  2  0
 29  1  1  0
  5  6  1  0
 23 31  1  0
 14 15  1  0
 31 32  1  0
 18 33  1  0
 15 16  2  0
 14 34  1  0
  1  2  1  0
 16 17  1  0
  7  8  2  0
 17 18  2  0
 18 13  1  0
  8  9  1  0
 19 20  2  0
 20 21  1  0
M  END
>  <ID_NEW>
CPDRE1011

>  <pIC50>
8.522878745280337

$$$$

  SciTegic12180813522D

 39 44  0  0  0  0            999 V2000
    5.9375   -2.3042    0.0000 N   0  0
    6.3458   -3.0167    0.0000 C   0  0
    7.1625   -3.0193    0.0000 C   0  0
    7.5770   -2.3111    0.0000 N   0  0
    7.1687   -1.5986    0.0000 C   0  0
    6.3458   -1.5943    0.0000 C   0  0
    5.9878   -4.6049    0.0000 C   0  0
    5.5710   -5.3153    0.0000 C   0  0
    5.9778   -6.0293    0.0000 C   0  0
    6.8011   -6.0341    0.0000 C   0  0
    7.2160   -5.3190    0.0000 C   0  0
    6.8069   -4.6079    0.0000 C   0  0
    4.1103   -4.9836    0.0000 C   0  0
    3.3946   -5.3900    0.0000 C   0  0
    3.3898   -6.2112    0.0000 C   0  0
    4.0998   -6.6268    0.0000 C   0  0
    4.8163   -6.2154    0.0000 C   0  0
    4.8176   -5.3956    0.0000 C   0  0
    1.6326   -4.8990    0.0000 C   0  0
    1.0472   -4.3120    0.0000 C   0  0
    0.2482   -4.5259    0.0000 C   0  0
    0.0335   -5.3264    0.0000 C   0  0
    0.6239   -5.9128    0.0000 C   0  0
    1.4207   -5.6959    0.0000 C   0  0
    3.4443   -3.6786    0.0000 C   0  0
    3.6574   -2.8807    0.0000 C   0  0
    3.0736   -2.2991    0.0000 C   0  0
    2.2764   -2.5143    0.0000 C   0  0
    2.0663   -3.3164    0.0000 N   0  0
    2.6517   -3.8945    0.0000 C   0  0
    4.1167   -4.1625    0.0000 N   0  0
    4.7860   -3.6800    0.0000 C   0  0
    4.5292   -2.8917    0.0000 C   0  0
    2.4333   -4.6875    0.0000 C   0  0
    5.5792   -3.8917    0.0000 O   0  0
    5.1125   -2.3042    0.0000 C   0  0
    4.8958   -1.5042    0.0000 O   0  0
    7.2125   -3.8875    0.0000 C   0  0
    5.5583   -6.7417    0.0000 F   0  0
 20 21  1  0
  9 10  2  0
 21 22  2  0
  1  6  1  0
 22 23  1  0
 10 11  1  0
 23 24  2  0
 24 19  1  0
  2  3  1  0
 11 12  2  0
 25 26  2  0
 12  7  1  0
 26 27  1  0
  3  4  1  0
 27 28  2  0
  4  5  1  0
 28 29  1  0
 13 14  2  0
 29 30  2  0
 30 25  1  0
  5  6  1  0
 14 15  1  0
 32 33  2  0
 31 32  1  0
 33 26  1  0
 25 31  1  0
 15 16  2  0
 30 34  1  0
 34 19  1  0
 31 13  1  0
  1  2  1  0
 32 35  1  0
 35  7  1  0
 16 17  1  0
 33 36  1  0
  7  8  2  0
 36 37  2  0
 36  1  1  0
 17 18  2  0
 12 38  1  0
 18 13  1  0
  9 39  1  0
  8  9  1  0
 19 20  2  0
M  END
>  <ID_NEW>
CPDRE1012

>  <pIC50>
8.522878745280337

$$$$

  SciTegic12180813542D

 33 37  0  0  0  0            999 V2000
    3.9194    1.3917    0.0000 C   0  0
    3.9182    0.7809    0.0000 C   0  0
    4.4331    0.4764    0.0000 C   0  0
    4.9495    0.7814    0.0000 C   0  0
    4.9466    1.3953    0.0000 C   0  0
    4.4313    1.6960    0.0000 C   0  0
    4.4330    2.3085    0.0000 C   0  0
    3.4048    1.6998    0.0000 C   0  0
    5.4596    1.7021    0.0000 F   0  0
    2.8904    1.3913    0.0000 C   0  0
    2.3519    1.6416    0.0000 C   0  0
    2.8322    0.7858    0.0000 C   0  0
    2.2502    0.6556    0.0000 N   0  0
    1.9547    1.1861    0.0000 C   0  0
    1.3641    1.1860    0.0000 C   0  0
    1.0670    0.6570    0.0000 C   0  0
    1.3627    0.1307    0.0000 C   0  0
    1.9553    0.1292    0.0000 C   0  0
    2.2255    2.2359    0.0000 C   0  0
    2.6691    2.6442    0.0000 C   0  0
    2.5474    3.2378    0.0000 C   0  0
    1.9785    3.4302    0.0000 C   0  0
    1.5395    3.0144    0.0000 C   0  0
    1.6645    2.4228    0.0000 C   0  0
    2.9852    3.6485    0.0000 F   0  0
    3.2757    0.3768    0.0000 C   0  0
    3.8390    0.5667    0.0000 O   0  0
    3.1517   -0.2222    0.0000 N   0  0
    2.5878   -0.4083    0.0000 C   0  0
    2.4626   -1.0034    0.0000 C   0  0
    2.9035   -1.4116    0.0000 N   0  0
    3.4682   -1.2233    0.0000 C   0  0
    3.5963   -0.6224    0.0000 C   0  0
 19 20  2  0
  5  6  2  0
 20 21  1  0
 10 11  1  0
 21 22  2  0
 22 23  1  0
  6  1  1  0
 23 24  2  0
 24 19  1  0
 11 14  2  0
 21 25  1  0
 12 26  1  0
 13 12  1  0
 12 10  2  0
 26 27  2  0
 13 14  1  0
  1  2  2  0
  6  7  1  0
 26 28  1  0
 28 29  1  0
  3  4  2  0
  1  8  1  0
  5  9  1  0
  8 10  1  0
 13 18  1  0
 28 33  1  0
 29 30  1  0
 30 31  1  0
 31 32  1  0
 32 33  1  0
 14 15  1  0
 15 16  2  0
 16 17  1  0
 17 18  2  0
  4  5  1  0
 11 19  1  0
  2  3  1  0
M  END
>  <ID_NEW>
CPDRE1013

>  <pIC50>
8.522878745280337

$$$$

  SciTegic12180813562D

 33 37  0  0  0  0            999 V2000
   -0.8486   -0.4310    0.0000 C   0  0
   -0.1338   -0.8477    0.0000 C   0  0
    0.5823   -0.4371    0.0000 C   0  0
    0.5848    0.3900    0.0000 C   0  0
   -0.1347    0.8048    0.0000 C   0  0
   -0.8479    0.3918    0.0000 C   0  0
   -1.5641   -0.8417    0.0000 C   0  0
   -1.5624    0.8042    0.0000 O   0  0
   -0.1355    1.6298    0.0000 C   0  0
   -0.7657    3.5209    0.0000 N   0  0
   -1.5313    3.8309    0.0000 C   0  0
   -0.6507    2.6924    0.0000 C   0  0
   -2.1869    3.3235    0.0000 C   0  0
   -1.3022    2.1821    0.0000 C   0  0
   -2.0718    2.4950    0.0000 N   0  0
   -4.3757   -0.0411    0.0000 C   0  0
   -5.0979    0.3697    0.0000 C   0  0
   -5.0980    1.2043    0.0000 C   0  0
   -4.3799    1.6202    0.0000 N   0  0
   -2.8828    1.4677    0.0000 C   0  0
   -2.3888    0.8005    0.0000 C   0  0
   -2.8730    0.1254    0.0000 N   0  0
   -3.6583    0.3744    0.0000 C   0  0
   -3.6648    1.2027    0.0000 C   0  0
   -2.7458   -0.6951    0.0000 C   0  0
   -3.3961   -1.2096    0.0000 C   0  0
   -3.2728   -2.0245    0.0000 C   0  0
   -2.5004   -2.3306    0.0000 C   0  0
   -1.8494   -1.8074    0.0000 C   0  0
   -1.9754   -0.9902    0.0000 C   0  0
   -2.8517    2.2074    0.0000 C   0  0
   -3.4911    2.7331    0.0000 O   0  0
   -5.8111   -0.0451    0.0000 O   0  0
  4  5  1  0
  2  3  1  0
  5  6  2  0
  6  1  1  0
  1  2  2  0
  1  7  1  0
  3  4  2  0
  6  8  1  0
  5  9  1  0
 12 14  1  0
 13 15  1  0
 14 15  1  0
 10 11  1  0
 10 12  1  0
 11 13  1  0
 23 16  1  0
 16 17  2  0
 17 18  1  0
 18 19  2  0
 19 24  1  0
 23 24  2  0
 21 22  1  0
 20 21  2  0
 22 23  1  0
 24 20  1  0
 22 25  1  0
 25 26  2  0
 26 27  1  0
 27 28  2  0
 28 29  1  0
 29 30  2  0
 30 25  1  0
 21  8  1  0
 20 31  1  0
 31 15  1  0
 31 32  2  0
 17 33  1  0
M  END
>  <ID_NEW>
CPDRE1014

>  <pIC50>
8.522878745280337

$$$$

  SciTegic12180813472D

 33 37  0  0  0  0            999 V2000
   -5.0972    0.7793    0.0000 C   0  0
   -5.0984   -0.0481    0.0000 C   0  0
   -4.3836   -0.4610    0.0000 C   0  0
   -4.3854    1.1920    0.0000 C   0  0
   -3.6700    0.7829    0.0000 C   0  0
   -3.6652   -0.0435    0.0000 C   0  0
   -2.8777   -0.2944    0.0000 N   0  0
   -2.3957    0.3771    0.0000 C   0  0
   -2.8855    1.0428    0.0000 C   0  0
   -2.6182   -1.0775    0.0000 C   0  0
   -3.1697   -1.6891    0.0000 C   0  0
   -2.9108   -2.4716    0.0000 C   0  0
   -2.1020   -2.6390    0.0000 C   0  0
   -1.5527   -2.0178    0.0000 C   0  0
   -1.8146   -1.2377    0.0000 C   0  0
   -2.6352    1.8289    0.0000 C   0  0
   -1.8292    2.0052    0.0000 O   0  0
   -3.1908    2.4388    0.0000 N   0  0
   -2.9384    3.2218    0.0000 C   0  0
   -3.4901    3.8303    0.0000 C   0  0
   -4.2973    3.6581    0.0000 N   0  0
   -4.5498    2.8717    0.0000 C   0  0
   -3.9951    2.2575    0.0000 C   0  0
   -1.5707    0.3820    0.0000 C   0  0
   -0.8583   -0.0291    0.0000 C   0  0
   -0.8608   -0.8527    0.0000 C   0  0
   -0.1493   -1.2636    0.0000 C   0  0
    0.5639   -0.8521    0.0000 C   0  0
    0.5610   -0.0254    0.0000 C   0  0
   -0.1511    0.3819    0.0000 C   0  0
    1.2739    0.3898    0.0000 F   0  0
   -0.1539    1.2069    0.0000 C   0  0
   -5.8118    1.1917    0.0000 O   0  0
 10 11  2  0
 11 12  1  0
 12 13  2  0
 13 14  1  0
 14 15  2  0
 15 10  1  0
  9 16  1  0
 16 17  2  0
 16 18  1  0
 18 19  1  0
 18 23  1  0
 19 20  1  0
 20 21  1  0
 21 22  1  0
 22 23  1  0
  8 24  1  0
 24 25  1  0
 25 26  2  0
 26 27  1  0
 27 28  2  0
 28 29  1  0
 29 30  2  0
 30 25  1  0
 29 31  1  0
 30 32  1  0
  1 33  1  0
  1  2  2  0
  2  3  1  0
  3  6  2  0
  5  4  2  0
  4  1  1  0
  5  6  1  0
  6  7  1  0
  7  8  1  0
  8  9  2  0
  9  5  1  0
  7 10  1  0
M  END
>  <ID_NEW>
CPDRE1015

>  <pIC50>
8.397940008672036

$$$$

  SciTegic12180813492D

 33 37  0  0  0  0            999 V2000
   -0.8627    0.6903    0.0000 C   0  0
   -0.2728    1.2529    0.0000 C   0  0
   -0.6780   -0.1001    0.0000 C   0  0
   -1.6779    0.9133    0.0000 C   0  0
    0.5109    1.0339    0.0000 C   0  0
   -0.4570    2.0777    0.0000 C   0  0
    0.1031   -0.3224    0.0000 C   0  0
    0.6930    0.2403    0.0000 C   0  0
    1.1130    1.6081    0.0000 F   0  0
   -4.5760    3.4521    0.0000 N   0  0
   -4.6174    2.6272    0.0000 C   0  0
   -3.8313    3.8329    0.0000 C   0  0
   -3.9228    2.1746    0.0000 C   0  0
   -3.1353    3.3850    0.0000 C   0  0
   -3.1781    2.5554    0.0000 N   0  0
   -5.0948    0.9023    0.0000 C   0  0
   -5.0960    0.0749    0.0000 C   0  0
   -4.3812   -0.3379    0.0000 C   0  0
   -4.3830    1.3151    0.0000 C   0  0
   -2.8763    1.1646    0.0000 C   0  0
   -3.6676    0.9059    0.0000 C   0  0
   -3.6650    0.0728    0.0000 C   0  0
   -2.8712   -0.1809    0.0000 N   0  0
   -2.3859    0.4964    0.0000 C   0  0
   -2.4506   -0.9000    0.0000 C   0  0
   -1.6333   -0.8853    0.0000 C   0  0
   -2.8640   -1.6052    0.0000 C   0  0
   -1.2140   -1.6020    0.0000 C   0  0
   -2.4448   -2.3219    0.0000 C   0  0
   -1.6174   -2.3245    0.0000 C   0  0
   -2.6240    1.9500    0.0000 C   0  0
   -1.8176    2.1242    0.0000 O   0  0
   -5.8108   -0.3370    0.0000 O   0  0
  2  6  1  0
  3  7  2  0
  5  8  2  0
  5  9  1  0
  7  8  1  0
  1  2  2  0
  1  3  1  0
  1  4  1  0
  2  5  1  0
 11 13  1  0
 12 14  1  0
 13 15  1  0
 14 15  1  0
 10 11  1  0
 10 12  1  0
 22 23  1  0
 23 24  1  0
 24 20  2  0
 25 26  1  0
 25 27  2  0
 25 23  1  0
 26 28  2  0
 27 29  1  0
 28 30  1  0
 29 30  2  0
 19 16  2  0
 21 22  2  0
 17 18  2  0
 18 22  1  0
 16 17  1  0
 21 19  1  0
 20 21  1  0
 20 31  1  0
 31 32  2  0
 17 33  1  0
 31 15  1  0
 24  4  1  0
M  END
>  <ID_NEW>
CPDRE1016

>  <pIC50>
8.397940008672036

$$$$

  SciTegic12180813522D

 32 36  0  0  0  0            999 V2000
    2.1620   -1.2688    0.0000 N   0  0
    2.1437   -2.0946    0.0000 C   0  0
    2.8959   -0.8674    0.0000 C   0  0
    2.8506   -2.5276    0.0000 C   0  0
    3.6041   -1.2957    0.0000 C   0  0
    3.5844   -2.1262    0.0000 N   0  0
    1.6677   -3.7852    0.0000 C   0  0
    1.6665   -4.6126    0.0000 C   0  0
    2.3813   -5.0254    0.0000 C   0  0
    2.3795   -3.3724    0.0000 N   0  0
    3.8862   -3.5229    0.0000 C   0  0
    3.0949   -3.7816    0.0000 C   0  0
    3.0975   -4.6147    0.0000 C   0  0
    3.8913   -4.8684    0.0000 N   0  0
    4.3766   -4.1911    0.0000 C   0  0
    4.3119   -5.5875    0.0000 C   0  0
    5.1292   -5.5728    0.0000 C   0  0
    3.8985   -6.2927    0.0000 C   0  0
    5.5485   -6.2895    0.0000 C   0  0
    4.3177   -7.0094    0.0000 C   0  0
    5.1451   -7.0120    0.0000 C   0  0
    4.1385   -2.7375    0.0000 C   0  0
    4.9449   -2.5633    0.0000 O   0  0
    4.8834   -3.7958    0.0000 O   0  0
    5.6792   -4.0083    0.0000 C   0  0
    5.8907   -4.8056    0.0000 C   0  0
    6.6857   -5.0182    0.0000 C   0  0
    7.2686   -4.4349    0.0000 C   0  0
    7.0510   -3.6360    0.0000 C   0  0
    6.2564   -3.4271    0.0000 C   0  0
    5.3067   -5.3883    0.0000 C   0  0
    6.0397   -2.6311    0.0000 C   0  0
  2  4  1  0
  3  5  1  0
  4  6  1  0
  5  6  1  0
  1  2  1  0
  1  3  1  0
 13 14  1  0
 14 15  1  0
 15 11  2  0
 16 17  1  0
 16 18  1  0
 16 14  1  0
 17 19  1  0
 18 20  1  0
 19 21  1  0
 20 21  1  0
 10  7  2  0
 12 13  2  0
  8  9  2  0
  9 13  1  0
  7  8  1  0
 12 10  1  0
 11 12  1  0
 11 22  1  0
 22 23  2  0
 22  6  1  0
 15 24  1  0
 24 25  1  0
 25 26  2  0
 26 27  1  0
 27 28  2  0
 28 29  1  0
 29 30  2  0
 30 25  1  0
 26 31  1  0
 30 32  1  0
M  END
>  <ID_NEW>
CPDRE1017

>  <pIC50>
8.397940008672036

$$$$

  SciTegic12180813562D

 32 36  0  0  0  0            999 V2000
    2.1958   -2.3584    0.0000 C   0  0
    2.1958   -3.1501    0.0000 C   0  0
    2.8787   -3.5417    0.0000 C   0  0
    2.8787   -1.9625    0.0000 N   0  0
    3.5573   -2.3584    0.0000 N   0  0
    3.5660   -3.1507    0.0000 C   0  0
    4.3111   -3.3878    0.0000 C   0  0
    4.7737   -2.7497    0.0000 C   0  0
    4.3038   -2.1170    0.0000 C   0  0
    5.5612   -2.7409    0.0000 C   0  0
    4.5516   -4.1318    0.0000 C   0  0
    4.0291   -4.7095    0.0000 C   0  0
    4.2733   -5.4530    0.0000 C   0  0
    5.0394   -5.6167    0.0000 C   0  0
    5.5609   -5.0282    0.0000 C   0  0
    5.3145   -4.2864    0.0000 C   0  0
    4.5552   -1.3312    0.0000 C   0  0
    4.0004   -0.7206    0.0000 O   0  0
    5.9817   -3.4507    0.0000 C   0  0
    5.5724   -4.1675    0.0000 C   0  0
    5.9921   -4.8768    0.0000 C   0  0
    6.8180   -4.8681    0.0000 C   0  0
    7.2222   -4.1440    0.0000 C   0  0
    6.8001   -3.4376    0.0000 C   0  0
    7.2015   -2.7168    0.0000 C   0  0
    8.0471   -4.1319    0.0000 F   0  0
    5.3614   -1.1560    0.0000 N   0  0
    5.9146   -1.7728    0.0000 C   0  0
    6.7177   -1.6003    0.0000 C   0  0
    6.9732   -0.8155    0.0000 N   0  0
    6.4192   -0.2029    0.0000 C   0  0
    5.6097   -0.3751    0.0000 C   0  0
  9 17  1  0
  2  3  2  0
 17 18  2  0
  3  6  1  0
 10 19  1  0
 19 20  2  0
  6  7  2  0
 20 21  1  0
  7 11  1  0
 21 22  2  0
  7  8  1  0
 22 23  1  0
 11 12  2  0
 23 24  2  0
 24 19  1  0
  8  9  2  0
 24 25  1  0
 12 13  1  0
 23 26  1  0
 17 27  1  0
 27 28  1  0
  9  5  1  0
 13 14  2  0
  5  4  1  0
 14 15  1  0
 27 32  1  0
 28 29  1  0
 29 30  1  0
 30 31  1  0
 31 32  1  0
  8 10  1  0
 15 16  2  0
 16 11  1  0
  5  6  1  0
  1  2  1  0
  1  4  2  0
M  END
>  <ID_NEW>
CPDRE1018

>  <pIC50>
8.397940008672036

$$$$

  SciTegic12180813582D

 36 40  0  0  0  0            999 V2000
    7.4164   -2.6921    0.0000 C   0  0
    6.5899   -2.6959    0.0000 C   0  0
    7.3925   -1.3530    0.0000 C   0  0
    7.8149   -2.0228    0.0000 C   0  0
    8.6390   -2.0225    0.0000 C   0  0
    9.0396   -1.3520    0.0000 O   0  0
    9.0628   -2.6928    0.0000 N   0  0
    6.1618   -2.0268    0.0000 N   0  0
    6.5629   -1.3529    0.0000 C   0  0
    6.0459   -0.7632    0.0000 C   0  0
    5.3252   -1.0726    0.0000 C   0  0
    5.3969   -1.8535    0.0000 C   0  0
    4.6163   -0.6507    0.0000 C   0  0
    3.8964   -1.0537    0.0000 C   0  0
    3.1914   -0.6302    0.0000 C   0  0
    2.4721   -1.0326    0.0000 C   0  0
    2.4607   -1.8584    0.0000 C   0  0
    3.1747   -2.2802    0.0000 C   0  0
    3.8911   -1.8755    0.0000 C   0  0
    3.2042    0.1947    0.0000 C   0  0
    1.7633   -0.6103    0.0000 F   0  0
    6.2282    0.0414    0.0000 C   0  0
    7.0175    0.2845    0.0000 C   0  0
    7.1999    1.0883    0.0000 C   0  0
    6.5938    1.6493    0.0000 C   0  0
    5.8026    1.4011    0.0000 C   0  0
    5.6239    0.5978    0.0000 C   0  0
    4.9792   -2.5624    0.0000 C   0  0
    4.1542   -2.5551    0.0000 O   0  0
    5.3853   -3.2805    0.0000 N   0  0
    4.9632   -3.9887    0.0000 C   0  0
    5.3658   -4.7046    0.0000 C   0  0
    6.1910   -4.7162    0.0000 N   0  0
    6.6121   -4.0057    0.0000 C   0  0
    6.2079   -3.2835    0.0000 C   0  0
    9.8872   -2.6596    0.0000 C   0  0
  9  3  1  0
 16 21  1  0
  5  7  1  0
  9 10  2  0
 10 22  1  0
 10 11  1  0
 22 23  2  0
 11 12  2  0
 23 24  1  0
 12  8  1  0
 24 25  2  0
  2  8  1  0
 25 26  1  0
 11 13  1  0
 26 27  2  0
 27 22  1  0
  3  4  2  0
 12 28  1  0
 13 14  1  0
 28 29  2  0
  4  1  1  0
 28 30  1  0
 30 31  1  0
 14 15  2  0
  1  2  2  0
 15 16  1  0
  8  9  1  0
 30 35  1  0
 31 32  1  0
 32 33  1  0
 33 34  1  0
 34 35  1  0
 16 17  2  0
 17 18  1  0
  4  5  1  0
 18 19  2  0
 19 14  1  0
  5  6  2  0
 15 20  1  0
  7 36  1  0
M  END
>  <ID_NEW>
CPDRE1019

>  <pIC50>
8.397940008672036

$$$$

  SciTegic12180813082D

 32 36  0  0  0  0            999 V2000
   -3.6506   -1.7396    0.0000 C   0  0
   -3.6577   -2.5711    0.0000 C   0  0
   -2.9399   -2.9882    0.0000 C   0  0
   -2.9417   -1.3269    0.0000 C   0  0
   -2.2262   -1.7397    0.0000 C   0  0
   -2.2214   -2.5669    0.0000 C   0  0
   -1.4328   -2.8210    0.0000 N   0  0
   -0.9528   -2.1480    0.0000 C   0  0
   -1.4406   -1.4808    0.0000 C   0  0
   -1.1903   -0.6905    0.0000 C   0  0
   -0.3802   -0.5142    0.0000 N   0  0
   -1.7501   -0.0764    0.0000 O   0  0
    0.1740   -1.1315    0.0000 C   0  0
    0.9810   -0.9537    0.0000 C   0  0
    1.2397   -0.1644    0.0000 N   0  0
    0.6807    0.4475    0.0000 C   0  0
   -0.1328    0.2743    0.0000 C   0  0
   -1.4396   -3.6480    0.0000 C   0  0
   -2.1621   -4.0516    0.0000 C   0  0
   -2.1692   -4.8778    0.0000 C   0  0
   -1.4595   -5.3001    0.0000 C   0  0
   -0.7369   -4.8860    0.0000 C   0  0
   -0.7333   -4.0612    0.0000 C   0  0
   -0.1563   -2.3604    0.0000 O   0  0
    0.6437   -2.5729    0.0000 C   0  0
    0.8552   -3.3744    0.0000 C   0  0
    1.6544   -3.5912    0.0000 C   0  0
    2.2414   -3.0037    0.0000 C   0  0
    2.0238   -2.2006    0.0000 C   0  0
    1.2251   -1.9917    0.0000 C   0  0
    1.0042   -1.1916    0.0000 C   0  0
    1.8723   -4.3921    0.0000 F   0  0
  2  3  1  0
 30 31  1  0
  3  6  2  0
 27 32  1  0
  5  4  2  0
  4  1  1  0
  5  6  1  0
  6  7  1  0
  7  8  1  0
  8  9  2  0
  9  5  1  0
  9 10  1  0
 10 11  1  0
 10 12  2  0
 11 13  1  0
 11 17  1  0
 13 14  1  0
 14 15  1  0
 15 16  1  0
 16 17  1  0
  7 18  1  0
 18 19  2  0
 19 20  1  0
 20 21  2  0
 21 22  1  0
 22 23  2  0
 23 18  1  0
  8 24  1  0
 24 25  1  0
 25 26  2  0
 26 27  1  0
 27 28  2  0
 28 29  1  0
  1  2  2  0
 29 30  2  0
 30 25  1  0
M  END
>  <ID_NEW>
CPDRE1020

>  <pIC50>
8.301029995663981

$$$$

  SciTegic12180813522D

 41 46  0  0  0  0            999 V2000
   -3.0099    2.9018    0.0000 C   0  0
   -3.3000    2.1270    0.0000 N   0  0
   -2.7744    1.4905    0.0000 C   0  0
   -2.1988    3.0400    0.0000 C   0  0
   -0.8397    2.3726    0.0000 C   0  0
   -1.6713    2.4067    0.0000 C   0  0
   -1.9599    1.6252    0.0000 C   0  0
   -1.3047    1.1102    0.0000 N   0  0
   -0.6134    1.5754    0.0000 C   0  0
   -1.1617    0.2895    0.0000 C   0  0
   -0.3908    0.0178    0.0000 C   0  0
   -1.7954   -0.2269    0.0000 C   0  0
   -0.2482   -0.8002    0.0000 C   0  0
   -1.6529   -1.0449    0.0000 C   0  0
   -0.8786   -1.3363    0.0000 C   0  0
   -0.3632    3.0506    0.0000 C   0  0
    0.4586    2.9773    0.0000 N   0  0
   -0.7105    3.7989    0.0000 O   0  0
    0.8004    2.2297    0.0000 C   0  0
    1.6183    2.1548    0.0000 C   0  0
    2.0964    2.8276    0.0000 N   0  0
    1.7504    3.5776    0.0000 C   0  0
    0.9263    3.6548    0.0000 C   0  0
    0.2083    1.5792    0.0000 C   0  0
    0.6167    0.8667    0.0000 C   0  0
    0.2009    0.1573    0.0000 C   0  0
    0.6085   -0.5548    0.0000 C   0  0
    1.4306   -0.5578    0.0000 C   0  0
    1.8433    0.1571    0.0000 C   0  0
    1.4333    0.8661    0.0000 C   0  0
    1.8458    1.5806    0.0000 C   0  0
    2.6683    0.1573    0.0000 F   0  0
   -3.0637    0.7179    0.0000 C   0  0
   -3.8667    0.5083    0.0000 C   0  0
   -4.4484    1.1016    0.0000 C   0  0
   -5.2507    0.8926    0.0000 C   0  0
   -5.4713    0.0917    0.0000 C   0  0
   -4.8834   -0.5001    0.0000 C   0  0
   -4.0834   -0.2879    0.0000 C   0  0
   -4.2282    1.8967    0.0000 C   0  0
   -5.8299    1.4800    0.0000 F   0  0
 16 18  2  0
 17 19  1  0
  5  6  1  0
  7  8  1  0
  8  9  1  0
  9  5  2  0
 17 23  1  0
 19 20  1  0
 20 21  1  0
 21 22  1  0
 22 23  1  0
 10 11  1  0
 10 12  2  0
 10  8  1  0
 11 13  2  0
 12 14  1  0
 13 15  1  0
 14 15  2  0
  9 24  1  0
 24 25  1  0
 25 26  2  0
 26 27  1  0
 27 28  2  0
 28 29  1  0
 29 30  2  0
 30 25  1  0
 30 31  1  0
 29 32  1  0
  3 33  1  0
  4  1  2  0
 33 34  1  0
  6  7  2  0
 34 35  2  0
  2  3  2  0
 35 36  1  0
  3  7  1  0
 36 37  2  0
  5 16  1  0
 37 38  1  0
  1  2  1  0
 38 39  2  0
 39 34  1  0
 16 17  1  0
 35 40  1  0
  6  4  1  0
 36 41  1  0
M  END
>  <ID_NEW>
CPDRE1021

>  <pIC50>
8.301029995663981

$$$$

  SciTegic12180813542D

 33 37  0  0  0  0            999 V2000
   11.9485   -3.6625    0.0000 C   0  0
   11.9432   -4.4857    0.0000 C   0  0
   12.6524   -4.9000    0.0000 C   0  0
   13.3673   -4.4924    0.0000 C   0  0
   13.3686   -3.6660    0.0000 C   0  0
   12.6589   -3.2553    0.0000 C   0  0
    8.1411   -0.7438    0.0000 N   0  0
    8.1228   -1.5696    0.0000 C   0  0
    8.8750   -0.3424    0.0000 C   0  0
    8.8297   -2.0026    0.0000 C   0  0
    9.5832   -0.7707    0.0000 C   0  0
    9.5635   -1.6012    0.0000 N   0  0
    7.6468   -3.2602    0.0000 C   0  0
    7.6456   -4.0876    0.0000 C   0  0
    8.3604   -4.5004    0.0000 C   0  0
    8.3586   -2.8474    0.0000 N   0  0
    9.8653   -2.9979    0.0000 C   0  0
    9.0740   -3.2566    0.0000 C   0  0
    9.0766   -4.0897    0.0000 C   0  0
    9.8704   -4.3434    0.0000 N   0  0
   10.3557   -3.6661    0.0000 C   0  0
   10.1176   -2.2125    0.0000 C   0  0
   10.9240   -2.0383    0.0000 O   0  0
    9.8625   -5.1667    0.0000 C   0  0
    9.1438   -5.5702    0.0000 C   0  0
    9.1339   -6.3898    0.0000 C   0  0
    9.8410   -6.8122    0.0000 C   0  0
   10.5598   -6.4087    0.0000 C   0  0
   10.5714   -5.5828    0.0000 C   0  0
   11.1500   -3.4458    0.0000 O   0  0
   12.6606   -2.4303    0.0000 C   0  0
   11.2264   -4.8940    0.0000 C   0  0
   12.6480   -5.7250    0.0000 F   0  0
 10 12  1  0
 11 12  1  0
  7  8  1  0
  7  9  1  0
 19 20  1  0
 20 21  1  0
 21 17  2  0
 16 13  1  0
 18 19  1  0
 14 15  1  0
 15 19  2  0
 13 14  2  0
 18 16  2  0
 17 18  1  0
 17 22  1  0
 22 23  2  0
 22 12  1  0
  4  5  1  0
 20 24  1  0
 24 25  1  0
  2  3  1  0
  5  6  2  0
  6  1  1  0
  1  2  2  0
  3  4  2  0
 24 29  1  0
 25 26  1  0
 26 27  1  0
 27 28  1  0
 28 29  1  0
 21 30  1  0
 30  1  1  0
  6 31  1  0
  8 10  1  0
  2 32  1  0
  9 11  1  0
  3 33  1  0
M  END
>  <ID_NEW>
CPDRE1022

>  <pIC50>
8.301029995663981

$$$$

  -MTS-   10172316392D 0   0.00000     0.00000     0

 43 48  0  0  1  0  0  0  0  0999 V2000
    1.0400   -4.9170    0.0000 C   0  0  0  0  0  0  0  0  0  0  0  0
    1.0390   -5.7440    0.0000 C   0  0  0  0  0  0  0  0  0  0  0  0
    1.7540   -6.1570    0.0000 C   0  0  0  0  0  0  0  0  0  0  0  0
    2.4700   -5.7440    0.0000 C   0  0  0  0  0  0  0  0  0  0  0  0
    2.4670   -4.9130    0.0000 C   0  0  0  0  0  0  0  0  0  0  0  0
    1.7520   -4.5040    0.0000 C   0  0  0  0  0  0  0  0  0  0  0  0
    0.3260   -4.5040    0.0000 F   0  0  0  0  0  0  0  0  0  0  0  0
    1.7500   -3.6790    0.0000 C   0  0  0  0  0  0  0  0  0  0  0  0
    3.1800   -4.4980    0.0000 C   0  0  0  0  0  0  0  0  0  0  0  0
    4.6090   -4.4920    0.0000 C   0  0  0  0  0  0  0  0  0  0  0  0
    3.8990   -4.9100    0.0000 C   0  0  0  0  0  0  0  0  0  0  0  0
    4.0770   -5.7150    0.0000 C   0  0  0  0  0  0  0  0  0  0  0  0
    4.6890   -3.6710    0.0000 C   0  0  0  0  0  0  0  0  0  0  0  0
    5.4420   -3.3330    0.0000 C   0  0  0  0  0  0  0  0  0  0  0  0
    5.5220   -2.5130    0.0000 C   0  0  0  0  0  0  0  0  0  0  0  0
    4.8500   -2.0320    0.0000 C   0  0  0  0  0  0  0  0  0  0  0  0
    4.0960   -2.3780    0.0000 C   0  0  0  0  0  0  0  0  0  0  0  0
    4.0200   -3.1980    0.0000 C   0  0  0  0  0  0  0  0  0  0  0  0
    5.2260   -5.0390    0.0000 C   0  0  0  0  0  0  0  0  0  0  0  0
    4.8970   -5.7910    0.0000 N   0  0  0  0  0  0  0  0  0  0  0  0
    5.3810   -6.4480    0.0000 C   0  0  0  0  0  0  0  0  0  0  0  0
    6.1970   -6.3600    0.0000 C   0  0  0  0  0  0  0  0  0  0  0  0
    6.5260   -5.6080    0.0000 C   0  0  0  0  0  0  0  0  0  0  0  0
    6.0390   -4.9440    0.0000 C   0  0  0  0  0  0  0  0  0  0  0  0
    3.5310   -6.3340    0.0000 C   0  0  0  0  0  0  0  0  0  0  0  0
    2.7220   -6.1710    0.0000 O   0  0  0  0  0  0  0  0  0  0  0  0
    3.7940   -7.1160    0.0000 N   0  0  0  0  0  0  0  0  0  0  0  0
    3.2470   -7.7300    0.0000 C   0  0  0  0  0  0  0  0  0  0  0  0
    3.5070   -8.5090    0.0000 C   0  0  0  0  0  0  0  0  0  0  0  0
    4.3150   -8.6760    0.0000 N   0  0  0  0  0  0  0  0  0  0  0  0
    4.8630   -8.0580    0.0000 C   0  0  2  0  0  0  0  0  0  0  0  0
    4.6020   -7.2720    0.0000 C   0  0  0  0  0  0  0  0  0  0  0  0
    5.6710   -8.2240    0.0000 C   0  0  0  0  0  0  0  0  0  0  0  0
    6.2190   -7.6070    0.0000 C   0  0  0  0  0  0  0  0  0  0  0  0
    7.0270   -7.7730    0.0000 N   0  0  0  0  0  0  0  0  0  0  0  0
    5.9580   -6.8240    0.0000 O   0  0  0  0  0  0  0  0  0  0  0  0
    7.5750   -7.1560    0.0000 C   0  0  0  0  0  0  0  0  0  0  0  0
    8.3830   -7.3220    0.0000 C   0  0  0  0  0  0  0  0  0  0  0  0
    8.6370   -8.1060    0.0000 C   0  0  0  0  0  0  0  0  0  0  0  0
    9.4410   -8.2740    0.0000 C   0  0  0  0  0  0  0  0  0  0  0  0
    9.9930   -7.6590    0.0000 O   0  0  0  0  0  0  0  0  0  0  0  0
    9.7340   -6.8750    0.0000 C   0  0  0  0  0  0  0  0  0  0  0  0
    8.9240   -6.7050    0.0000 C   0  0  0  0  0  0  0  0  0  0  0  0
 11 12  2  0  0  0  0
 25 26  2  0  0  0  0
 12 20  1  0  0  0  0
 25 27  1  0  0  0  0
 27 28  1  0  0  0  0
 19 10  2  0  0  0  0
  1  7  1  0  0  0  0
 10 13  1  0  0  0  0
  3  4  2  0  0  0  0
 27 32  1  0  0  0  0
 28 29  1  0  0  0  0
 29 30  1  0  0  0  0
 30 31  1  0  0  0  0
 31 32  1  0  0  0  0
 13 14  2  0  0  0  0
  6  8  1  0  0  0  0
 14 15  1  0  0  0  0
  5  9  1  0  0  0  0
 15 16  2  0  0  0  0
  4  5  1  0  0  0  0
 16 17  1  0  0  0  0
  9 11  1  0  0  0  0
 31 33  1  6  0  0  0
 17 18  2  0  0  0  0
 33 34  1  0  0  0  0
 18 13  1  0  0  0  0
 34 35  1  0  0  0  0
 19 20  1  0  0  0  0
  2  3  1  0  0  0  0
  5  6  2  0  0  0  0
 10 11  1  0  0  0  0
  6  1  1  0  0  0  0
  1  2  2  0  0  0  0
 19 24  1  0  0  0  0
 34 36  2  0  0  0  0
 35 37  1  0  0  0  0
 37 38  1  0  0  0  0
 38 39  1  0  0  0  0
 20 21  1  0  0  0  0
 21 22  2  0  0  0  0
 22 23  1  0  0  0  0
 23 24  2  0  0  0  0
 12 25  1  0  0  0  0
 38 43  1  0  0  0  0
 39 40  1  0  0  0  0
 40 41  1  0  0  0  0
 41 42  1  0  0  0  0
 42 43  1  0  0  0  0
M  END
>  <ID_NEW>
CPDRE1023

>  <pIC50>
8.301029995663981

$$$$

  SciTegic12180813502D

 33 37  0  0  0  0            999 V2000
    6.3069   -3.2542    0.0000 C   0  0
    6.3016   -4.0774    0.0000 C   0  0
    7.0107   -4.4917    0.0000 C   0  0
    7.7257   -4.0841    0.0000 C   0  0
    7.7270   -3.2577    0.0000 C   0  0
    7.0172   -2.8470    0.0000 C   0  0
    5.3542   -1.0334    0.0000 N   0  0
    6.0667   -1.4459    0.0000 C   0  0
    6.7762   -1.0373    0.0000 C   0  0
    6.7795   -0.2147    0.0000 N   0  0
    6.0670    0.1978    0.0000 C   0  0
    5.3512   -0.2123    0.0000 C   0  0
    4.7144   -2.8270    0.0000 C   0  0
    4.2311   -4.3127    0.0000 C   0  0
    3.5155   -4.7192    0.0000 C   0  0
    3.5106   -5.5403    0.0000 C   0  0
    4.2207   -5.9560    0.0000 C   0  0
    4.9371   -5.5445    0.0000 C   0  0
    4.9385   -4.7247    0.0000 C   0  0
    4.2356   -3.4877    0.0000 N   0  0
    2.7435   -2.0154    0.0000 C   0  0
    2.0327   -2.4303    0.0000 C   0  0
    2.0397   -3.2566    0.0000 C   0  0
    2.7536   -3.6601    0.0000 N   0  0
    1.3125   -2.0166    0.0000 O   0  0
    4.2341   -2.1683    0.0000 C   0  0
    3.4568   -2.4226    0.0000 C   0  0
    3.4596   -3.2411    0.0000 C   0  0
    4.6417   -1.4500    0.0000 C   0  0
    4.2250   -0.7334    0.0000 O   0  0
    5.5084   -3.0375    0.0000 O   0  0
    7.0125   -2.0209    0.0000 C   0  0
    7.0042   -5.3167    0.0000 F   0  0
  8  9  1  0
  9 10  1  0
 10 11  1  0
 11 12  1  0
  6  1  1  0
 23 24  2  0
 24 28  1  0
 22 25  1  0
 27 21  1  0
 21 22  2  0
 22 23  1  0
 27 28  2  0
  7  8  1  0
  1  2  2  0
  3  4  2  0
 26 27  1  0
 28 20  1  0
 20 13  1  0
 13 26  2  0
 26 29  1  0
  4  5  1  0
 29 30  2  0
 29  7  1  0
  2  3  1  0
 19 14  1  0
 14 15  2  0
 16 17  2  0
 17 18  1  0
 15 16  1  0
 18 19  2  0
  5  6  2  0
 13 31  1  0
 31  1  1  0
 14 20  1  0
  6 32  1  0
  7 12  1  0
  3 33  1  0
M  END
>  <ID_NEW>
CPDRE1024

>  <pIC50>
8.221848749616356

$$$$

  SciTegic12180813502D

 33 37  0  0  0  0            999 V2000
   11.2694   -3.2749    0.0000 C   0  0
   11.2641   -4.0981    0.0000 C   0  0
   11.9732   -4.5125    0.0000 C   0  0
   12.6881   -4.1048    0.0000 C   0  0
   12.6895   -3.2785    0.0000 C   0  0
   11.9797   -2.8678    0.0000 C   0  0
    8.8834   -1.4083    0.0000 N   0  0
    8.8792   -0.5833    0.0000 C   0  0
    8.1666   -0.1767    0.0000 C   0  0
    7.4536   -0.5905    0.0000 N   0  0
    7.4578   -1.4155    0.0000 C   0  0
    8.1749   -1.8267    0.0000 C   0  0
    7.1403   -2.8750    0.0000 C   0  0
    7.1391   -3.7023    0.0000 C   0  0
    7.8540   -4.1152    0.0000 N   0  0
    8.5675   -2.8713    0.0000 C   0  0
    8.5724   -3.6978    0.0000 C   0  0
    9.3599   -3.9486    0.0000 N   0  0
    9.8418   -3.2771    0.0000 C   0  0
    9.3520   -2.6114    0.0000 C   0  0
    9.6194   -4.7317    0.0000 C   0  0
    9.0678   -5.3433    0.0000 C   0  0
    9.3268   -6.1258    0.0000 C   0  0
   10.1355   -6.2933    0.0000 C   0  0
   10.6848   -5.6720    0.0000 C   0  0
   10.4230   -4.8919    0.0000 C   0  0
    9.6024   -1.8253    0.0000 C   0  0
   10.4083   -1.6491    0.0000 O   0  0
    6.4209   -2.4584    0.0000 O   0  0
   10.5542   -2.8583    0.0000 C   0  0
   11.9750   -2.0416    0.0000 C   0  0
   13.2708   -2.6875    0.0000 F   0  0
    7.8500   -2.4583    0.0000 C   0  0
  1  2  2  0
  3  4  2  0
  4  5  1  0
 16 17  1  0
 17 18  1  0
 18 19  1  0
 19 20  2  0
 20 16  1  0
 18 21  1  0
 21 22  2  0
 22 23  1  0
 23 24  2  0
 24 25  1  0
 25 26  2  0
 26 21  1  0
 20 27  1  0
 27 28  2  0
 13 14  2  0
 14 15  1  0
 15 17  2  0
 27  7  1  0
 13 29  1  0
 11 12  1  0
  7  8  1  0
  7 12  1  0
  8  9  1  0
  9 10  1  0
 10 11  1  0
  2  3  1  0
 19 30  1  0
 30  1  1  0
  5  6  2  0
  6 31  1  0
  6  1  1  0
  5 32  1  0
 13 33  1  0
 16 33  2  0
M  END
>  <ID_NEW>
CPDRE1025

>  <pIC50>
8.221848749616356

$$$$

  SciTegic12180813512D

 34 38  0  0  0  0            999 V2000
    6.9748   -3.4930    0.0000 C   0  0
    7.5647   -2.9304    0.0000 C   0  0
    7.1595   -4.2834    0.0000 C   0  0
    6.1596   -3.2700    0.0000 C   0  0
    8.3484   -3.1494    0.0000 C   0  0
    7.3805   -2.1056    0.0000 C   0  0
    7.9406   -4.5057    0.0000 C   0  0
    8.5305   -3.9430    0.0000 C   0  0
    8.9505   -2.5752    0.0000 F   0  0
    3.2615   -0.7312    0.0000 N   0  0
    3.2201   -1.5561    0.0000 C   0  0
    4.0062   -0.3504    0.0000 C   0  0
    3.9147   -2.0087    0.0000 C   0  0
    4.7022   -0.7983    0.0000 C   0  0
    4.6594   -1.6279    0.0000 N   0  0
    2.7427   -3.2810    0.0000 N   0  0
    2.7415   -4.1084    0.0000 C   0  0
    3.4563   -4.5212    0.0000 C   0  0
    3.4545   -2.8682    0.0000 C   0  0
    4.9612   -3.0187    0.0000 C   0  0
    4.1699   -3.2774    0.0000 C   0  0
    4.1725   -4.1105    0.0000 C   0  0
    4.9663   -4.3642    0.0000 N   0  0
    5.4516   -3.6869    0.0000 C   0  0
    5.3869   -5.0833    0.0000 C   0  0
    6.2042   -5.0686    0.0000 C   0  0
    4.9735   -5.7885    0.0000 C   0  0
    6.6235   -5.7853    0.0000 C   0  0
    5.3927   -6.5052    0.0000 C   0  0
    6.2201   -6.5078    0.0000 C   0  0
    5.2135   -2.2333    0.0000 C   0  0
    6.0199   -2.0591    0.0000 O   0  0
    2.0267   -4.5203    0.0000 O   0  0
    1.3126   -4.1073    0.0000 C   0  0
  2  6  1  0
  3  7  2  0
  5  8  2  0
  5  9  1  0
  7  8  1  0
  1  2  2  0
  1  3  1  0
  1  4  1  0
  2  5  1  0
 11 13  1  0
 12 14  1  0
 13 15  1  0
 14 15  1  0
 10 11  1  0
 10 12  1  0
 22 23  1  0
 23 24  1  0
 24 20  2  0
 25 26  1  0
 25 27  2  0
 25 23  1  0
 26 28  2  0
 27 29  1  0
 28 30  1  0
 29 30  2  0
 19 16  2  0
 21 22  2  0
 17 18  2  0
 18 22  1  0
 16 17  1  0
 21 19  1  0
 20 21  1  0
 20 31  1  0
 31 32  2  0
 17 33  1  0
 33 34  1  0
 31 15  1  0
 24  4  1  0
M  END
>  <ID_NEW>
CPDRE1026

>  <pIC50>
8.221848749616356

$$$$

  SciTegic12180813522D

 35 39  0  0  0  0            999 V2000
   -0.7289    0.3201    0.0000 C   0  0
   -1.1456   -0.3903    0.0000 C   0  0
   -0.7389   -1.1043    0.0000 C   0  0
    0.0845   -1.1091    0.0000 C   0  0
    0.4994   -0.3940    0.0000 C   0  0
    0.0902    0.3171    0.0000 C   0  0
   -2.6064   -0.0586    0.0000 C   0  0
   -3.3221   -0.4650    0.0000 C   0  0
   -3.3269   -1.2862    0.0000 C   0  0
   -2.6168   -1.7018    0.0000 C   0  0
   -1.9004   -1.2904    0.0000 C   0  0
   -1.8991   -0.4706    0.0000 C   0  0
   -3.2724    1.2464    0.0000 C   0  0
   -3.0593    2.0443    0.0000 C   0  0
   -3.6431    2.6259    0.0000 C   0  0
   -4.4403    2.4107    0.0000 C   0  0
   -4.6504    1.6086    0.0000 C   0  0
   -4.0650    1.0305    0.0000 C   0  0
   -2.6000    0.7625    0.0000 N   0  0
   -1.9307    1.2450    0.0000 C   0  0
   -2.1875    2.0333    0.0000 C   0  0
   -1.1375    1.0333    0.0000 O   0  0
   -1.7404    2.7272    0.0000 C   0  0
    0.4958    1.0375    0.0000 C   0  0
   -1.1583   -1.8167    0.0000 F   0  0
   -5.0292    3.0000    0.0000 C   0  0
   -4.8154    3.7968    0.0000 O   0  0
   -5.8262    2.7867    0.0000 N   0  0
   -0.9164    2.6869    0.0000 N   0  0
   -2.1176    3.4609    0.0000 O   0  0
   -0.5411    1.9518    0.0000 C   0  0
    0.2792    1.9098    0.0000 C   0  0
    0.7298    2.6013    0.0000 N   0  0
    0.3540    3.3368    0.0000 C   0  0
   -0.4725    3.3808    0.0000 C   0  0
 14 15  1  0
 10 11  1  0
 15 16  2  0
  5  6  2  0
 16 17  1  0
 11 12  2  0
 17 18  2  0
 18 13  1  0
 12  7  1  0
 20 21  2  0
  6  1  1  0
 19 20  1  0
 21 14  1  0
 13 19  1  0
 19  7  1  0
  1  2  2  0
  3  4  2  0
 20 22  1  0
 22  1  1  0
  7  8  2  0
 21 23  1  0
  8  9  1  0
  4  5  1  0
  9 10  2  0
  6 24  1  0
 13 14  2  0
  3 25  1  0
 16 26  1  0
  2  3  1  0
 26 27  2  0
 26 28  1  0
 23 29  1  0
 23 30  2  0
 29 31  1  0
 29 35  1  0
 31 32  1  0
 32 33  1  0
 33 34  1  0
 34 35  1  0
M  END
>  <ID_NEW>
CPDRE1027

>  <pIC50>
8.221848749616356

$$$$

  SciTegic12180813522D

 35 39  0  0  0  0            999 V2000
    5.8000   -0.8583    0.0000 N   0  0
    6.0125   -1.6583    0.0000 C   0  0
    6.8077   -1.8710    0.0000 C   0  0
    7.3961   -1.2869    0.0000 N   0  0
    7.1836   -0.4870    0.0000 C   0  0
    6.3827   -0.2710    0.0000 C   0  0
    5.8794   -2.9549    0.0000 C   0  0
    5.4586   -3.6694    0.0000 C   0  0
    5.8694   -4.3876    0.0000 C   0  0
    6.6970   -4.3924    0.0000 C   0  0
    7.1119   -3.6731    0.0000 C   0  0
    6.7027   -2.9579    0.0000 C   0  0
    3.9936   -3.3377    0.0000 C   0  0
    3.2737   -3.7441    0.0000 C   0  0
    3.2689   -4.5695    0.0000 C   0  0
    3.9832   -4.9893    0.0000 C   0  0
    4.6996   -4.5737    0.0000 C   0  0
    4.7051   -3.7497    0.0000 C   0  0
    3.3234   -2.0244    0.0000 C   0  0
    3.5365   -1.2223    0.0000 C   0  0
    2.9486   -0.6366    0.0000 C   0  0
    2.1472   -0.8559    0.0000 C   0  0
    1.9371   -1.6622    0.0000 C   0  0
    2.5267   -2.2403    0.0000 C   0  0
    4.0000   -2.5125    0.0000 N   0  0
    4.6693   -2.0258    0.0000 C   0  0
    4.4125   -1.2333    0.0000 C   0  0
    5.0000   -0.6417    0.0000 C   0  0
    4.7834    0.1625    0.0000 O   0  0
    5.4667   -2.2375    0.0000 O   0  0
    1.1291   -1.8708    0.0000 C   0  0
    7.1083   -2.2333    0.0000 C   0  0
    5.4459   -5.1042    0.0000 F   0  0
    0.7083   -1.1500    0.0000 O   0  0
    0.9083   -2.6709    0.0000 N   0  0
 22 23  1  0
 11 12  2  0
 23 24  2  0
 24 19  1  0
 12  7  1  0
  5  6  1  0
 26 27  2  0
 25 26  1  0
 27 20  1  0
 19 25  1  0
 13 14  2  0
 27 28  1  0
  1  2  1  0
 28 29  2  0
 28  1  1  0
 14 15  1  0
 26 30  1  0
 30  7  1  0
 25 13  1  0
  7  8  2  0
 23 31  1  0
 15 16  2  0
  1  6  1  0
 12 32  1  0
 16 17  1  0
  9 33  1  0
  8  9  1  0
 17 18  2  0
 18 13  1  0
  2  3  1  0
  9 10  2  0
 19 20  2  0
  3  4  1  0
 31 34  2  0
 20 21  1  0
 31 35  1  0
 10 11  1  0
 21 22  2  0
  4  5  1  0
M  END
>  <ID_NEW>
CPDRE1028

>  <pIC50>
8.221848749616356

$$$$

  SciTegic12180813582D

 32 36  0  0  0  0            999 V2000
   -4.9914    0.3139    0.0000 C   0  0
   -5.7078    0.7273    0.0000 C   0  0
   -5.7050    1.5578    0.0000 C   0  0
   -4.9896    1.9669    0.0000 N   0  0
   -3.4895    0.4720    0.0000 N   0  0
   -4.2766    0.7268    0.0000 C   0  0
   -4.2763    1.5547    0.0000 C   0  0
   -3.4881    1.8090    0.0000 C   0  0
   -3.0040    1.1373    0.0000 C   0  0
   -2.1790    1.1349    0.0000 S   0  0
   -3.2309    2.5928    0.0000 C   0  0
   -2.4234    2.7619    0.0000 N   0  0
   -3.7811    3.2075    0.0000 O   0  0
   -1.8727    2.1410    0.0000 C   0  0
   -1.0683    2.3075    0.0000 C   0  0
   -0.8069    3.0904    0.0000 N   0  0
   -1.3563    3.7071    0.0000 C   0  0
   -2.1671    3.5410    0.0000 C   0  0
   -1.7686    0.4192    0.0000 C   0  0
   -2.1873   -0.2911    0.0000 C   0  0
   -1.7776   -1.0063    0.0000 C   0  0
   -0.9517   -1.0092    0.0000 C   0  0
   -0.5372   -0.2909    0.0000 C   0  0
   -0.9493    0.4214    0.0000 C   0  0
   -2.9875   -0.5000    0.0000 C   0  0
   -3.7083   -0.3208    0.0000 C   0  0
   -4.5061   -0.5253    0.0000 C   0  0
   -4.7251   -1.3174    0.0000 C   0  0
   -4.1476   -1.9043    0.0000 C   0  0
   -3.3481   -1.6937    0.0000 C   0  0
   -3.1328   -0.9021    0.0000 C   0  0
   -0.5381    1.1366    0.0000 C   0  0
  1  2  2  0
  2  3  1  0
  3  4  2  0
  4  7  1  0
  6  7  2  0
  5  6  1  0
  7  8  1  0
  8  9  2  0
  9  5  1  0
  9 10  1  0
  8 11  1  0
 11 12  1  0
 11 13  2  0
 12 14  1  0
 12 18  1  0
 14 15  1  0
 15 16  1  0
 16 17  1  0
 17 18  1  0
 10 19  1  0
 19 20  2  0
 20 21  1  0
 21 22  2  0
 22 23  1  0
 23 24  2  0
 24 19  1  0
  6  1  1  0
 20 25  1  0
  5 26  1  0
 26 27  2  0
 27 28  1  0
 28 29  2  0
 29 30  1  0
 30 31  2  0
 31 26  1  0
 24 32  1  0
M  END
>  <ID_NEW>
CPDRE1029

>  <pIC50>
8.221848749616356

$$$$

  SciTegic12180813522D

 32 36  0  0  0  0            999 V2000
    8.9930  -12.0324    0.0000 C   0  0
    8.3025  -12.2143    0.0000 C   0  0
    8.1162  -12.9019    0.0000 C   0  0
    8.6194  -13.4081    0.0000 C   0  0
    9.3116  -13.2221    0.0000 C   0  0
    9.4947  -12.5349    0.0000 C   0  0
   10.8064  -11.2618    0.0000 C   0  0
   11.4027  -12.3125    0.0000 C   0  0
   12.0096  -11.9671    0.0000 C   0  0
   12.0113  -11.2659    0.0000 C   0  0
   11.4095  -10.9169    0.0000 C   0  0
    7.8919  -11.4777    0.0000 C   0  0
    7.8937  -10.0580    0.0000 N   0  0
    7.2825  -10.4088    0.0000 C   0  0
    7.2819  -11.1231    0.0000 C   0  0
    8.5068  -11.1231    0.0000 C   0  0
    8.5055  -10.4111    0.0000 C   0  0
    9.1823  -10.1899    0.0000 C   0  0
    9.6019  -10.7652    0.0000 C   0  0
    9.1843  -11.3419    0.0000 N   0  0
    9.4000   -9.5158    0.0000 C   0  0
   10.0926   -9.3673    0.0000 N   0  0
    8.9251   -8.9903    0.0000 O   0  0
   10.5683   -9.8977    0.0000 C   0  0
   11.2582   -9.7515    0.0000 C   0  0
   11.4254   -9.0074    0.0000 N   0  0
   11.0053   -8.5510    0.0000 C   0  0
   10.3099   -8.6969    0.0000 C   0  0
   10.3083  -10.7625    0.0000 C   0  0
   10.8000  -11.9500    0.0000 C   0  0
   10.3000  -12.4458    0.0000 Cl  0  0
   11.5875  -10.2417    0.0000 F   0  0
  4  5  1  0
  9 10  1  0
  2  3  1  0
 10 11  2  0
 11  7  1  0
  5  6  2  0
  6  1  1  0
 13 17  1  0
 14 15  1  0
 16 17  2  0
 17 18  1  0
 18 19  2  0
 19 20  1  0
 20 16  1  0
 18 21  1  0
 21 22  1  0
 21 23  2  0
 22 24  1  0
 22 28  1  0
 24 25  1  0
 25 26  1  0
 26 27  1  0
 27 28  1  0
 16 12  1  0
 12 15  2  0
 14 13  2  0
  1  2  2  0
 19 29  1  0
 29  7  1  0
 20  1  1  0
  3  4  2  0
  7 30  2  0
 30  8  1  0
 30 31  1  0
  8  9  2  0
 11 32  1  0
M  END
>  <ID_NEW>
CPDRE1030

>  <pIC50>
8.221848749616356

$$$$

  SciTegic12180813522D

 33 37  0  0  0  0            999 V2000
   -5.0973    1.6625    0.0000 C   0  0
   -5.0985    0.8351    0.0000 C   0  0
   -4.3836    0.4223    0.0000 C   0  0
   -4.3854    2.0753    0.0000 C   0  0
   -2.8801    0.5798    0.0000 N   0  0
   -2.3924    1.2515    0.0000 C   0  0
   -2.8806    1.9230    0.0000 C   0  0
   -3.6701    1.6661    0.0000 C   0  0
   -3.6698    0.8360    0.0000 C   0  0
   -2.6249   -0.2048    0.0000 C   0  0
   -3.1792   -0.8165    0.0000 C   0  0
   -2.9246   -1.6004    0.0000 C   0  0
   -2.1168   -1.7723    0.0000 C   0  0
   -1.5641   -1.1540    0.0000 C   0  0
   -1.8217   -0.3725    0.0000 C   0  0
   -2.6260    2.7077    0.0000 C   0  0
   -1.8191    2.8795    0.0000 N   0  0
   -3.1782    3.3206    0.0000 O   0  0
   -1.2688    2.2630    0.0000 C   0  0
   -0.4650    2.4321    0.0000 C   0  0
   -0.2062    3.2159    0.0000 N   0  0
   -0.7577    3.8308    0.0000 C   0  0
   -1.5679    3.6620    0.0000 C   0  0
   -1.5674    1.2518    0.0000 C   0  0
   -0.9875    0.6708    0.0000 C   0  0
   -1.2037   -0.1222    0.0000 C   0  0
   -0.6247   -0.7029    0.0000 C   0  0
    0.1694   -0.4914    0.0000 C   0  0
    0.3812    0.3060    0.0000 C   0  0
   -0.1994    0.8833    0.0000 C   0  0
    0.0125    1.6833    0.0000 Cl  0  0
   -1.9209    0.2916    0.0000 F   0  0
   -5.8118    2.0748    0.0000 O   0  0
  1  2  2  0
  2  3  1  0
  3  9  2  0
  8  4  2  0
  4  1  1  0
  8  9  1  0
  6  7  2  0
  5  6  1  0
  7  8  1  0
  9  5  1  0
  5 10  1  0
 10 11  2  0
 11 12  1  0
 12 13  2  0
 13 14  1  0
 14 15  2  0
 15 10  1  0
  7 16  1  0
 16 17  1  0
 16 18  2  0
 17 19  1  0
 17 23  1  0
 19 20  1  0
 20 21  1  0
 21 22  1  0
 22 23  1  0
  6 24  1  0
 24 25  1  0
 25 26  2  0
 26 27  1  0
 27 28  2  0
 28 29  1  0
 29 30  2  0
 30 25  1  0
 30 31  1  0
 26 32  1  0
  1 33  1  0
M  END
>  <ID_NEW>
CPDRE1031

>  <pIC50>
8.221848749616356

$$$$

  SciTegic12180813542D

 33 37  0  0  0  0            999 V2000
   -1.6998    0.6519    0.0000 C   0  0
   -1.2933   -0.0596    0.0000 C   0  0
   -0.4758   -0.0624    0.0000 C   0  0
   -0.0637    0.6457    0.0000 C   0  0
   -0.4751    1.3579    0.0000 C   0  0
   -1.2914    1.3572    0.0000 C   0  0
   -5.8306    1.0542    0.0000 C   0  0
   -5.8318    0.2268    0.0000 C   0  0
   -5.1169   -0.1861    0.0000 N   0  0
   -5.1187    1.4669    0.0000 C   0  0
   -3.6120    1.3164    0.0000 N   0  0
   -4.4034    1.0578    0.0000 C   0  0
   -4.4008    0.2247    0.0000 C   0  0
   -3.6070   -0.0290    0.0000 C   0  0
   -3.1216    0.6482    0.0000 C   0  0
   -3.6167    2.1416    0.0000 C   0  0
   -2.9020    2.5564    0.0000 C   0  0
   -2.9063    3.3808    0.0000 C   0  0
   -3.6238    3.7902    0.0000 C   0  0
   -4.3385    3.3692    0.0000 C   0  0
   -4.3307    2.5461    0.0000 C   0  0
   -3.2000   -0.7375    0.0000 C   0  0
   -3.9167   -1.1459    0.0000 O   0  0
   -2.4875   -1.1500    0.0000 N   0  0
   -2.4905   -1.9743    0.0000 C   0  0
   -1.7821   -2.3867    0.0000 C   0  0
   -1.0662   -1.9794    0.0000 N   0  0
   -1.0632   -1.1552    0.0000 C   0  0
   -1.7761   -0.7382    0.0000 C   0  0
   -2.4125    1.0666    0.0000 C   0  0
   -1.7037    2.0717    0.0000 C   0  0
    0.1042    1.9458    0.0000 F   0  0
   -2.1958    3.8000    0.0000 F   0  0
  1  2  2  0
  2  3  1  0
  3  4  2  0
  4  5  1  0
  5  6  2  0
  6  1  1  0
  7  8  2  0
  8  9  1  0
  9 13  2  0
 12 10  2  0
 10  7  1  0
 12 13  1  0
 11 12  1  0
 13 14  1  0
 14 15  2  0
 15 11  1  0
 11 16  1  0
 16 17  2  0
 17 18  1  0
 18 19  2  0
 19 20  1  0
 20 21  2  0
 21 16  1  0
 14 22  1  0
 22 23  2  0
 22 24  1  0
 24 25  1  0
 24 29  1  0
 25 26  1  0
 26 27  1  0
 27 28  1  0
 28 29  1  0
 15 30  1  0
 30  1  1  0
  6 31  1  0
  5 32  1  0
 18 33  1  0
M  END
>  <ID_NEW>
CPDRE1032

>  <pIC50>
8.221848749616356

$$$$

  SciTegic12180813562D

 34 38  0  0  0  0            999 V2000
    1.9444   -1.6667    0.0000 C   0  0
    1.9432   -2.4941    0.0000 C   0  0
    2.6581   -2.9069    0.0000 C   0  0
    2.6563   -1.2539    0.0000 C   0  0
    4.1659   -2.7434    0.0000 N   0  0
    4.6493   -2.0702    0.0000 C   0  0
    4.1584   -1.4025    0.0000 C   0  0
    3.3716   -1.6631    0.0000 C   0  0
    3.3763   -2.4918    0.0000 C   0  0
    4.4253   -3.5266    0.0000 C   0  0
    5.4743   -2.0656    0.0000 O   0  0
    4.4089   -0.6165    0.0000 C   0  0
    5.2148   -0.4404    0.0000 N   0  0
    3.8534   -0.0065    0.0000 O   0  0
    5.7720   -1.0521    0.0000 C   0  0
    6.5749   -0.8788    0.0000 C   0  0
    6.8295   -0.0937    0.0000 N   0  0
    6.2749    0.5183    0.0000 C   0  0
    5.4655    0.3453    0.0000 C   0  0
    6.1833   -2.4751    0.0000 C   0  0
    6.1805   -3.2949    0.0000 C   0  0
    6.8887   -3.7043    0.0000 C   0  0
    7.5988   -3.2950    0.0000 C   0  0
    7.5963   -2.4719    0.0000 C   0  0
    6.8875   -2.0662    0.0000 C   0  0
    6.8849   -1.2412    0.0000 C   0  0
    6.8882   -4.5293    0.0000 F   0  0
    1.2285   -2.9060    0.0000 O   0  0
    3.8748   -4.1404    0.0000 C   0  0
    4.1336   -4.9230    0.0000 C   0  0
    4.9423   -5.0906    0.0000 C   0  0
    5.4918   -4.4694    0.0000 C   0  0
    5.2300   -3.6892    0.0000 C   0  0
    5.4652   -3.7059    0.0000 C   0  0
  5  6  1  0
  7  8  1  0
  9  5  1  0
  5 10  1  0
  6 11  1  0
  7 12  1  0
 12 13  1  0
 12 14  2  0
 13 15  1  0
 13 19  1  0
 15 16  1  0
 16 17  1  0
 17 18  1  0
 18 19  1  0
 11 20  1  0
 20 21  2  0
 21 22  1  0
 22 23  2  0
 23 24  1  0
 24 25  2  0
 25 20  1  0
 25 26  1  0
 22 27  1  0
  2 28  1  0
  1  2  2  0
  2  3  1  0
 10 29  2  0
  3  9  2  0
 29 30  1  0
  8  4  2  0
 30 31  2  0
  4  1  1  0
 31 32  1  0
  8  9  1  0
 32 33  2  0
 33 10  1  0
  6  7  2  0
 21 34  1  0
M  END
>  <ID_NEW>
CPDRE1033

>  <pIC50>
8.221848749616356

$$$$

  -MTS-   10172316392D 0   0.00000     0.00000     0

 41 45  0  0  1  0  0  0  0  0999 V2000
    1.0530   -4.5960    0.0000 C   0  0  0  0  0  0  0  0  0  0  0  0
    1.0510   -5.4230    0.0000 C   0  0  0  0  0  0  0  0  0  0  0  0
    1.7660   -5.8360    0.0000 C   0  0  0  0  0  0  0  0  0  0  0  0
    2.4830   -5.4230    0.0000 C   0  0  0  0  0  0  0  0  0  0  0  0
    2.4800   -4.5920    0.0000 C   0  0  0  0  0  0  0  0  0  0  0  0
    1.7640   -4.1830    0.0000 C   0  0  0  0  0  0  0  0  0  0  0  0
    3.1930   -4.1770    0.0000 C   0  0  0  0  0  0  0  0  0  0  0  0
    3.9090   -4.5870    0.0000 C   0  0  0  0  0  0  0  0  0  0  0  0
    3.9970   -5.4060    0.0000 C   0  0  0  0  0  0  0  0  0  0  0  0
    4.6600   -4.2480    0.0000 C   0  0  0  0  0  0  0  0  0  0  0  0
    5.2150   -4.8590    0.0000 C   0  0  0  0  0  0  0  0  0  0  0  0
    4.8040   -5.5750    0.0000 N   0  0  0  0  0  0  0  0  0  0  0  0
    5.2160   -6.2840    0.0000 C   0  0  0  0  0  0  0  0  0  0  0  0
    6.0410   -6.2840    0.0000 C   0  0  0  0  0  0  0  0  0  0  0  0
    6.4520   -5.5680    0.0000 C   0  0  0  0  0  0  0  0  0  0  0  0
    6.0380   -4.8530    0.0000 C   0  0  0  0  0  0  0  0  0  0  0  0
    4.8280   -3.4400    0.0000 C   0  0  0  0  0  0  0  0  0  0  0  0
    3.3860   -5.9600    0.0000 C   0  0  0  0  0  0  0  0  0  0  0  0
    2.6010   -5.7080    0.0000 O   0  0  0  0  0  0  0  0  0  0  0  0
    3.5600   -6.7670    0.0000 N   0  0  0  0  0  0  0  0  0  0  0  0
    1.7620   -3.3580    0.0000 C   0  0  0  0  0  0  0  0  0  0  0  0
    0.3380   -4.1830    0.0000 F   0  0  0  0  0  0  0  0  0  0  0  0
    2.9460   -7.3180    0.0000 C   0  0  0  0  0  0  0  0  0  0  0  0
    3.1170   -8.1220    0.0000 C   0  0  0  0  0  0  0  0  0  0  0  0
    3.9020   -8.3780    0.0000 N   0  0  0  0  0  0  0  0  0  0  0  0
    4.5150   -7.8250    0.0000 C   0  0  2  0  0  0  0  0  0  0  0  0
    4.3440   -7.0150    0.0000 C   0  0  0  0  0  0  0  0  0  0  0  0
    5.6110   -3.1840    0.0000 C   0  0  0  0  0  0  0  0  0  0  0  0
    5.7790   -2.3770    0.0000 C   0  0  0  0  0  0  0  0  0  0  0  0
    5.1630   -1.8270    0.0000 C   0  0  0  0  0  0  0  0  0  0  0  0
    4.3770   -2.0890    0.0000 C   0  0  0  0  0  0  0  0  0  0  0  0
    4.2120   -2.8960    0.0000 C   0  0  0  0  0  0  0  0  0  0  0  0
    5.2990   -8.0800    0.0000 C   0  0  0  0  0  0  0  0  0  0  0  0
    5.8790   -7.4920    0.0000 C   0  0  0  0  0  0  0  0  0  0  0  0
    6.6770   -7.6990    0.0000 N   0  0  0  0  0  0  0  0  0  0  0  0
    5.6600   -6.6960    0.0000 O   0  0  0  0  0  0  0  0  0  0  0  0
    7.2570   -7.1120    0.0000 C   0  0  0  0  0  0  0  0  0  0  0  0
    8.0550   -7.3190    0.0000 C   0  0  0  0  0  0  0  0  0  0  0  0
    8.6340   -6.7320    0.0000 C   0  0  0  0  0  0  0  0  0  0  0  0
    9.4330   -6.9400    0.0000 O   0  0  0  0  0  0  0  0  0  0  0  0
   10.0120   -6.3500    0.0000 C   0  0  0  0  0  0  0  0  0  0  0  0
 20 23  1  0  0  0  0
 10  8  1  0  0  0  0
 11 12  1  0  0  0  0
  2  3  1  0  0  0  0
  5  6  2  0  0  0  0
  6  1  1  0  0  0  0
 20 27  1  0  0  0  0
 23 24  1  0  0  0  0
 24 25  1  0  0  0  0
 25 26  1  0  0  0  0
 26 27  1  0  0  0  0
  1  2  2  0  0  0  0
  5  7  1  0  0  0  0
  3  4  2  0  0  0  0
 11 16  1  0  0  0  0
 12 13  1  0  0  0  0
 13 14  2  0  0  0  0
 14 15  1  0  0  0  0
 15 16  2  0  0  0  0
 17 28  2  0  0  0  0
  7  8  1  0  0  0  0
 28 29  1  0  0  0  0
 10 17  1  0  0  0  0
 29 30  2  0  0  0  0
  8  9  2  0  0  0  0
 30 31  1  0  0  0  0
  9 18  1  0  0  0  0
 31 32  2  0  0  0  0
 32 17  1  0  0  0  0
 26 33  1  6  0  0  0
 18 19  2  0  0  0  0
 33 34  1  0  0  0  0
  4  5  1  0  0  0  0
 34 35  1  0  0  0  0
 18 20  1  0  0  0  0
 34 36  2  0  0  0  0
 35 37  1  0  0  0  0
  9 12  1  0  0  0  0
 37 38  1  0  0  0  0
  6 21  1  0  0  0  0
 38 39  1  0  0  0  0
 11 10  2  0  0  0  0
 39 40  1  0  0  0  0
  1 22  1  0  0  0  0
 40 41  1  0  0  0  0
M  END
>  <ID_NEW>
CPDRE1034

>  <pIC50>
8.221848749616356

$$$$

  SciTegic12180813592D

 41 45  0  0  0  0            999 V2000
   -1.4720    0.3376    0.0000 C   0  0
   -1.0854   -0.3811    0.0000 C   0  0
   -1.0642    1.0445    0.0000 C   0  0
   -2.3084    0.3500    0.0000 O   0  0
   -0.2497   -0.3935    0.0000 C   0  0
   -1.4933   -1.0984    0.0000 C   0  0
   -0.2285    1.0322    0.0000 C   0  0
   -1.4507    1.7736    0.0000 C   0  0
    0.1723    0.3091    0.0000 C   0  0
   -2.6292    2.4458    0.0000 N   0  0
   -1.8292    2.2333    0.0000 C   0  0
   -1.2504    2.8131    0.0000 C   0  0
   -2.2620    3.8293    0.0000 C   0  0
   -2.8504    3.2423    0.0000 C   0  0
   -5.8281    0.9690    0.0000 C   0  0
   -5.8293    0.1374    0.0000 C   0  0
   -5.1104   -0.2754    0.0000 C   0  0
   -5.1122    1.3859    0.0000 N   0  0
   -3.5971    1.2313    0.0000 C   0  0
   -4.3926    0.9726    0.0000 C   0  0
   -4.3900    0.1353    0.0000 C   0  0
   -3.5920   -0.1184    0.0000 N   0  0
   -3.1067    0.5631    0.0000 C   0  0
   -3.1714   -0.8417    0.0000 C   0  0
   -2.3500   -0.8270    0.0000 C   0  0
   -3.5848   -1.5510    0.0000 C   0  0
   -1.9265   -1.5478    0.0000 C   0  0
   -3.1656   -2.2719    0.0000 C   0  0
   -2.3341   -2.2745    0.0000 C   0  0
   -3.3448    2.0208    0.0000 C   0  0
   -3.9031    2.6363    0.0000 O   0  0
   -1.4708    3.6209    0.0000 N   0  0
   -0.5417    2.4042    0.0000 C   0  0
    0.1727    2.8168    0.0000 C   0  0
    0.8873    2.4045    0.0000 N   0  0
    0.1725    3.6418    0.0000 O   0  0
    1.6017    2.8172    0.0000 C   0  0
    2.3162    2.4049    0.0000 C   0  0
    3.0306    2.8176    0.0000 C   0  0
    3.7452    2.4053    0.0000 O   0  0
    4.4596    2.8180    0.0000 C   0  0
  1  2  2  0
  1  3  1  0
  1  4  1  0
  2  5  1  0
  2  6  1  0
  3  7  2  0
  3  8  1  0
  7  9  1  0
  5  9  2  0
 13 14  1  0
 21 22  1  0
 22 23  1  0
 23 19  2  0
 24 25  2  0
 24 26  1  0
 24 22  1  0
 25 27  1  0
 26 28  2  0
 27 29  2  0
 28 29  1  0
 18 15  2  0
 20 21  2  0
 16 17  2  0
 17 21  1  0
 15 16  1  0
 20 18  1  0
 19 20  1  0
 19 30  1  0
 23  4  1  0
 30 31  2  0
 30 10  1  0
 10 11  1  0
 12 32  1  0
 13 32  1  0
 10 14  1  0
 11 12  1  0
 12 33  1  0
 33 34  1  0
 34 35  1  0
 34 36  2  0
 35 37  1  0
 37 38  1  0
 38 39  1  0
 39 40  1  0
 40 41  1  0
M  END
>  <ID_NEW>
CPDRE1035

>  <pIC50>
8.221848749616356

$$$$

  SciTegic12180813592D

 43 48  0  0  0  0            999 V2000
    2.3125    2.4083    0.0000 C   0  0
    2.3083    1.5833    0.0000 C   0  0
    3.0168    1.1695    0.0000 C   0  0
    3.7339    1.5761    0.0000 O   0  0
    3.7381    2.4011    0.0000 C   0  0
    3.0251    2.8195    0.0000 C   0  0
   -1.4720    0.3376    0.0000 C   0  0
   -1.0854   -0.3811    0.0000 C   0  0
   -1.0642    1.0445    0.0000 C   0  0
   -2.3084    0.3500    0.0000 O   0  0
   -0.2497   -0.3935    0.0000 C   0  0
   -1.4933   -1.0984    0.0000 C   0  0
   -0.2285    1.0322    0.0000 C   0  0
   -1.4507    1.7736    0.0000 C   0  0
    0.1723    0.3091    0.0000 C   0  0
   -2.6292    2.4458    0.0000 N   0  0
   -1.8292    2.2333    0.0000 C   0  0
   -1.2504    2.8131    0.0000 C   0  0
   -2.2620    3.8293    0.0000 C   0  0
   -2.8504    3.2423    0.0000 C   0  0
   -5.8281    0.9690    0.0000 C   0  0
   -5.8293    0.1374    0.0000 C   0  0
   -5.1104   -0.2754    0.0000 C   0  0
   -5.1122    1.3859    0.0000 N   0  0
   -3.5971    1.2313    0.0000 C   0  0
   -4.3926    0.9726    0.0000 C   0  0
   -4.3900    0.1353    0.0000 C   0  0
   -3.5920   -0.1184    0.0000 N   0  0
   -3.1067    0.5631    0.0000 C   0  0
   -3.1714   -0.8417    0.0000 C   0  0
   -2.3500   -0.8270    0.0000 C   0  0
   -3.5848   -1.5510    0.0000 C   0  0
   -1.9265   -1.5478    0.0000 C   0  0
   -3.1656   -2.2719    0.0000 C   0  0
   -2.3341   -2.2745    0.0000 C   0  0
   -3.3448    2.0208    0.0000 C   0  0
   -3.9031    2.6363    0.0000 O   0  0
   -1.4708    3.6209    0.0000 N   0  0
   -0.5417    2.4042    0.0000 C   0  0
    0.1727    2.8168    0.0000 C   0  0
    0.8873    2.4045    0.0000 N   0  0
    0.1725    3.6418    0.0000 O   0  0
    1.6017    2.8172    0.0000 C   0  0
  1  6  1  0
  2  3  1  0
  3  4  1  0
  4  5  1  0
  5  6  1  0
  1  2  1  0
  7  8  2  0
  7  9  1  0
  7 10  1  0
  8 11  1  0
  8 12  1  0
  9 13  2  0
  9 14  1  0
 13 15  1  0
 11 15  2  0
 19 20  1  0
 27 28  1  0
 28 29  1  0
 29 25  2  0
 30 31  2  0
 30 32  1  0
 30 28  1  0
 31 33  1  0
 32 34  2  0
 33 35  2  0
 34 35  1  0
 24 21  2  0
 26 27  2  0
 22 23  2  0
 23 27  1  0
 21 22  1  0
 26 24  1  0
 25 26  1  0
 25 36  1  0
 29 10  1  0
 36 37  2  0
 36 16  1  0
 16 17  1  0
 18 38  1  0
 19 38  1  0
 16 20  1  0
 17 18  1  0
 18 39  1  0
 39 40  1  0
 40 41  1  0
 40 42  2  0
 41 43  1  0
 43  1  1  0
M  END
>  <ID_NEW>
CPDRE1036

>  <pIC50>
8.221848749616356

$$$$

  -MTS-   10172316392D 0   0.00000     0.00000     0

 43 47  0  0  1  0  0  0  0  0999 V2000
    6.7580   -6.1790    0.0000 C   0  0  0  0  0  0  0  0  0  0  0  0
    7.1550   -5.4940    0.0000 C   0  0  0  0  0  0  0  0  0  0  0  0
    6.7610   -4.8130    0.0000 C   0  0  0  0  0  0  0  0  0  0  0  0
    5.9680   -6.1780    0.0000 N   0  0  0  0  0  0  0  0  0  0  0  0
    5.5800   -5.4950    0.0000 N   0  0  0  0  0  0  0  0  0  0  0  0
    5.9700   -4.8060    0.0000 C   0  0  0  0  0  0  0  0  0  0  0  0
    5.4450   -4.2270    0.0000 C   0  0  0  0  0  0  0  0  0  0  0  0
    4.7240   -4.5460    0.0000 C   0  0  0  0  0  0  0  0  0  0  0  0
    4.8130   -5.3290    0.0000 C   0  0  0  0  0  0  0  0  0  0  0  0
    4.0390   -4.1580    0.0000 C   0  0  0  0  0  0  0  0  0  0  0  0
    7.9480   -5.4910    0.0000 C   0  0  0  0  0  0  0  0  0  0  0  0
    8.3430   -4.8090    0.0000 O   0  0  0  0  0  0  0  0  0  0  0  0
    8.3450   -6.1780    0.0000 N   0  0  0  0  0  0  0  0  0  0  0  0
    5.6100   -3.4620    0.0000 C   0  0  0  0  0  0  0  0  0  0  0  0
    6.3520   -3.2250    0.0000 C   0  0  0  0  0  0  0  0  0  0  0  0
    6.5140   -2.4590    0.0000 C   0  0  0  0  0  0  0  0  0  0  0  0
    5.9340   -1.9330    0.0000 C   0  0  0  0  0  0  0  0  0  0  0  0
    5.1880   -2.1800    0.0000 C   0  0  0  0  0  0  0  0  0  0  0  0
    5.0280   -2.9460    0.0000 C   0  0  0  0  0  0  0  0  0  0  0  0
    3.3280   -4.5770    0.0000 C   0  0  0  0  0  0  0  0  0  0  0  0
    2.6120   -4.1700    0.0000 C   0  0  0  0  0  0  0  0  0  0  0  0
    1.9020   -4.5880    0.0000 C   0  0  0  0  0  0  0  0  0  0  0  0
    1.9090   -5.4140    0.0000 C   0  0  0  0  0  0  0  0  0  0  0  0
    2.6320   -5.8200    0.0000 C   0  0  0  0  0  0  0  0  0  0  0  0
    3.3390   -5.4000    0.0000 C   0  0  0  0  0  0  0  0  0  0  0  0
    2.6060   -3.3450    0.0000 C   0  0  0  0  0  0  0  0  0  0  0  0
    1.1840   -4.1820    0.0000 F   0  0  0  0  0  0  0  0  0  0  0  0
    4.2250   -5.9120    0.0000 C   0  0  0  0  0  0  0  0  0  0  0  0
    3.4290   -5.6950    0.0000 O   0  0  0  0  0  0  0  0  0  0  0  0
    4.4350   -6.7100    0.0000 N   0  0  0  0  0  0  0  0  0  0  0  0
    3.8470   -7.2870    0.0000 C   0  0  0  0  0  0  0  0  0  0  0  0
    4.0540   -8.0820    0.0000 C   0  0  0  0  0  0  0  0  0  0  0  0
    4.8490   -8.3040    0.0000 N   0  0  0  0  0  0  0  0  0  0  0  0
    5.4370   -7.7240    0.0000 C   0  0  2  0  0  0  0  0  0  0  0  0
    5.2300   -6.9220    0.0000 C   0  0  0  0  0  0  0  0  0  0  0  0
    6.2330   -7.9430    0.0000 C   0  0  0  0  0  0  0  0  0  0  0  0
    6.8210   -7.3650    0.0000 C   0  0  0  0  0  0  0  0  0  0  0  0
    7.6160   -7.5840    0.0000 N   0  0  0  0  0  0  0  0  0  0  0  0
    6.6130   -6.5660    0.0000 O   0  0  0  0  0  0  0  0  0  0  0  0
    7.8230   -8.3830    0.0000 C   0  0  0  0  0  0  0  0  0  0  0  0
    8.6170   -8.5920    0.0000 C   0  0  0  0  0  0  0  0  0  0  0  0
    7.9330   -6.8930    0.0000 C   0  0  0  0  0  0  0  0  0  0  0  0
    9.1700   -6.1780    0.0000 C   0  0  0  0  0  0  0  0  0  0  0  0
  5  4  1  0  0  0  0
 22 23  2  0  0  0  0
 17 18  1  0  0  0  0
 23 24  1  0  0  0  0
  8 10  1  0  0  0  0
 24 25  2  0  0  0  0
 25 20  1  0  0  0  0
 18 19  2  0  0  0  0
 21 26  1  0  0  0  0
 19 14  1  0  0  0  0
 22 27  1  0  0  0  0
  5  6  1  0  0  0  0
  9 28  1  0  0  0  0
  2 11  1  0  0  0  0
 28 29  2  0  0  0  0
 11 12  2  0  0  0  0
 28 30  1  0  0  0  0
 30 31  1  0  0  0  0
  1  2  1  0  0  0  0
  1  4  2  0  0  0  0
 11 13  1  0  0  0  0
  2  3  2  0  0  0  0
 30 35  1  0  0  0  0
 31 32  1  0  0  0  0
 32 33  1  0  0  0  0
 33 34  1  0  0  0  0
 34 35  1  0  0  0  0
  3  6  1  0  0  0  0
 34 36  1  6  0  0  0
 36 37  1  0  0  0  0
  6  7  2  0  0  0  0
 37 38  1  0  0  0  0
  7 14  1  0  0  0  0
 37 39  2  0  0  0  0
  7  8  1  0  0  0  0
 38 40  1  0  0  0  0
 14 15  2  0  0  0  0
 40 41  1  0  0  0  0
  8  9  2  0  0  0  0
 15 16  1  0  0  0  0
 10 20  1  0  0  0  0
  9  5  1  0  0  0  0
 20 21  2  0  0  0  0
 16 17  2  0  0  0  0
 13 42  1  0  0  0  0
 21 22  1  0  0  0  0
 13 43  1  0  0  0  0
M  END
>  <ID_NEW>
CPDRE1037

>  <pIC50>
8.221848749616356

$$$$

  SciTegic12180813462D

 32 36  0  0  0  0            999 V2000
    4.0652   -1.7556    0.0000 N   0  0
    4.3208   -0.9681    0.0000 C   0  0
    3.7609   -0.3563    0.0000 C   0  0
    2.9537   -0.5363    0.0000 N   0  0
    2.7023   -1.3239    0.0000 C   0  0
    3.2580   -1.9356    0.0000 C   0  0
    4.6377   -5.2795    0.0000 C   0  0
    4.0902   -5.8998    0.0000 C   0  0
    4.3491   -6.6821    0.0000 C   0  0
    5.1598   -6.8525    0.0000 C   0  0
    5.7115   -6.2322    0.0000 C   0  0
    5.4483   -5.4499    0.0000 C   0  0
    4.3787   -4.4930    0.0000 N   0  0
    4.8621   -3.8246    0.0000 C   0  0
    4.3737   -3.1548    0.0000 C   0  0
    4.6209   -2.3673    0.0000 C   0  0
    5.4322   -2.1957    0.0000 O   0  0
    3.5913   -4.2457    0.0000 C   0  0
    3.5872   -3.4166    0.0000 C   0  0
    2.8673   -3.0053    0.0000 N   0  0
    2.1557   -3.4227    0.0000 C   0  0
    2.1600   -4.2518    0.0000 C   0  0
    2.8756   -4.6613    0.0000 C   0  0
    5.9192   -2.5509    0.0000 C   0  0
    6.4479   -1.9136    0.0000 C   0  0
    7.2640   -2.0571    0.0000 C   0  0
    7.5515   -2.8255    0.0000 C   0  0
    7.0229   -3.4664    0.0000 C   0  0
    6.2068   -3.3267    0.0000 C   0  0
    7.3105   -4.2397    0.0000 C   0  0
    5.6782   -3.9602    0.0000 O   0  0
    6.1604   -1.1411    0.0000 F   0  0
 18 19  2  0
  8  9  1  0
 19 20  1  0
 11 12  2  0
 20 21  2  0
 12  7  1  0
 21 22  1  0
  7  8  2  0
 22 23  2  0
 23 18  1  0
 14 15  2  0
  9 10  2  0
 13 14  1  0
 15 19  1  0
 18 13  1  0
 13  7  1  0
 27 28  1  0
 25 26  1  0
 28 29  2  0
 29 24  1  0
 24 25  2  0
 28 30  1  0
 26 27  2  0
 29 31  1  0
 25 32  1  0
 14 31  1  0
 15 16  1  0
 16 17  2  0
 16  1  1  0
  3  4  1  0
  4  5  1  0
  5  6  1  0
  1  2  1  0
  1  6  1  0
  2  3  1  0
 10 11  1  0
M  END
>  <ID_NEW>
CPDRE1038

>  <pIC50>
8.154901959985743

$$$$

  SciTegic12180813512D

 32 36  0  0  0  0            999 V2000
    7.3402   -3.3750    0.0000 C   0  0
    7.3349   -4.2023    0.0000 C   0  0
    8.0482   -4.6167    0.0000 C   0  0
    8.7631   -4.2090    0.0000 C   0  0
    8.7645   -3.3785    0.0000 C   0  0
    8.0547   -2.9637    0.0000 C   0  0
    3.1735   -2.9625    0.0000 C   0  0
    3.1723   -3.7982    0.0000 C   0  0
    3.8956   -4.2194    0.0000 C   0  0
    3.8938   -2.5497    0.0000 C   0  0
    4.6133   -2.9588    0.0000 C   0  0
    4.6182   -3.7983    0.0000 C   0  0
    5.4183   -4.0546    0.0000 N   0  0
    5.9071   -3.3752    0.0000 C   0  0
    5.4063   -2.6975    0.0000 C   0  0
    5.6649   -1.9031    0.0000 C   0  0
    6.4793   -1.7268    0.0000 O   0  0
    5.1010   -1.2849    0.0000 N   0  0
    5.6820   -4.8461    0.0000 C   0  0
    5.1209   -5.4636    0.0000 C   0  0
    5.3774   -6.2523    0.0000 C   0  0
    6.1931   -6.4234    0.0000 C   0  0
    6.7521   -5.8077    0.0000 C   0  0
    6.4952   -5.0125    0.0000 C   0  0
    5.3542   -0.4920    0.0000 C   0  0
    4.8025    0.1207    0.0000 C   0  0
    3.9869   -0.0555    0.0000 N   0  0
    3.7260   -0.8503    0.0000 C   0  0
    4.2890   -1.4646    0.0000 C   0  0
    6.6209   -2.9542    0.0000 O   0  0
    8.0500   -2.1333    0.0000 C   0  0
    8.0417   -5.4458    0.0000 F   0  0
  5  6  2  0
  6  1  1  0
  1  2  2  0
  3  4  2  0
  8  9  1  0
  9 12  2  0
 11 10  2  0
 10  7  1  0
 11 12  1  0
  7  8  2  0
 12 13  1  0
 13 14  1  0
 14 15  2  0
 15 11  1  0
 15 16  1  0
 16 17  2  0
 16 18  1  0
 13 19  1  0
 19 20  1  0
 19 24  1  0
 20 21  1  0
 21 22  1  0
 22 23  1  0
 23 24  2  0
 18 25  1  0
 18 29  1  0
 25 26  1  0
 26 27  1  0
 27 28  1  0
 28 29  1  0
 14 30  1  0
 30  1  1  0
  4  5  1  0
  6 31  1  0
  2  3  1  0
  3 32  1  0
M  END
>  <ID_NEW>
CPDRE1039

>  <pIC50>
8.154901959985743

$$$$

  SciTegic12180813522D

 32 36  0  0  0  0            999 V2000
    3.7861   -0.8292    0.0000 C   0  0
    3.7849   -1.6565    0.0000 C   0  0
    4.4997   -2.0694    0.0000 C   0  0
    5.2162   -1.6561    0.0000 C   0  0
    5.2133   -0.8255    0.0000 C   0  0
    4.4979   -0.4164    0.0000 C   0  0
    4.4955    0.4086    0.0000 C   0  0
    3.0715   -0.4168    0.0000 F   0  0
    5.9262   -0.4103    0.0000 C   0  0
    6.6422   -0.8201    0.0000 C   0  0
    6.7352   -1.6392    0.0000 C   0  0
    7.3982   -0.4807    0.0000 C   0  0
    7.5669    0.3269    0.0000 C   0  0
    7.9526   -1.0916    0.0000 C   0  0
    7.5436   -1.8038    0.0000 N   0  0
    7.9536   -2.5102    0.0000 C   0  0
    8.7743   -2.5106    0.0000 C   0  0
    9.1833   -1.7984    0.0000 C   0  0
    8.7717   -1.0858    0.0000 C   0  0
    8.3499    0.5820    0.0000 C   0  0
    8.5198    1.3857    0.0000 C   0  0
    7.9073    1.9389    0.0000 C   0  0
    7.1221    1.6828    0.0000 C   0  0
    6.9493    0.8734    0.0000 C   0  0
    6.1268   -2.1964    0.0000 C   0  0
    5.3400   -1.9481    0.0000 O   0  0
    6.1208   -3.0208    0.0000 N   0  0
    5.4021   -3.4266    0.0000 C   0  0
    5.3941   -4.2474    0.0000 C   0  0
    6.1033   -4.6686    0.0000 N   0  0
    6.8221   -4.2628    0.0000 C   0  0
    6.8317   -3.4358    0.0000 C   0  0
  9 10  1  0
 10 11  2  0
  1  2  2  0
  6  7  1  0
 13 24  2  0
 20 21  2  0
 21 22  1  0
 22 23  2  0
 23 24  1  0
 11 25  1  0
 11 15  1  0
 25 26  2  0
 14 12  2  0
 12 10  1  0
  3  4  2  0
 12 13  1  0
 14 15  1  0
 25 27  1  0
 27 28  1  0
  1  8  1  0
  5  9  1  0
  4  5  1  0
  2  3  1  0
  5  6  2  0
 27 32  1  0
 28 29  1  0
 29 30  1  0
 30 31  1  0
 31 32  1  0
  6  1  1  0
 14 19  1  0
 15 16  1  0
 16 17  2  0
 17 18  1  0
 18 19  2  0
 13 20  1  0
M  END
>  <ID_NEW>
CPDRE1040

>  <pIC50>
8.154901959985743

$$$$

  -MTS-   10172316392D 0   0.00000     0.00000     0

 47 52  0  0  1  0  0  0  0  0999 V2000
    1.7750   -2.4750    0.0000 C   0  0  0  0  0  0  0  0  0  0  0  0
    1.7750   -3.3000    0.0000 C   0  0  0  0  0  0  0  0  0  0  0  0
    2.4870   -3.7080    0.0000 C   0  0  0  0  0  0  0  0  0  0  0  0
    2.4870   -2.0580    0.0000 N   0  0  0  0  0  0  0  0  0  0  0  0
    3.1990   -2.4750    0.0000 N   0  0  0  0  0  0  0  0  0  0  0  0
    3.2030   -3.2960    0.0000 C   0  0  0  0  0  0  0  0  0  0  0  0
    3.9860   -3.5460    0.0000 C   0  0  0  0  0  0  0  0  0  0  0  0
    4.4650   -2.8790    0.0000 C   0  0  0  0  0  0  0  0  0  0  0  0
    3.9790   -2.2170    0.0000 C   0  0  0  0  0  0  0  0  0  0  0  0
    4.2290   -1.4310    0.0000 C   0  0  0  0  0  0  0  0  0  0  0  0
    5.0350   -1.2550    0.0000 N   0  0  0  0  0  0  0  0  0  0  0  0
    3.6740   -0.8210    0.0000 O   0  0  0  0  0  0  0  0  0  0  0  0
    5.2900   -2.8740    0.0000 C   0  0  0  0  0  0  0  0  0  0  0  0
    5.7070   -3.5860    0.0000 C   0  0  0  0  0  0  0  0  0  0  0  0
    4.2450   -4.3290    0.0000 C   0  0  0  0  0  0  0  0  0  0  0  0
    1.0610   -3.7130    0.0000 C   0  0  0  0  0  0  0  0  0  0  0  0
    0.3460   -3.3020    0.0000 N   0  0  0  0  0  0  0  0  0  0  0  0
    1.0620   -4.5380    0.0000 O   0  0  0  0  0  0  0  0  0  0  0  0
    3.6940   -4.9440    0.0000 C   0  0  0  0  0  0  0  0  0  0  0  0
    3.9530   -5.7270    0.0000 C   0  0  0  0  0  0  0  0  0  0  0  0
    4.7610   -5.8950    0.0000 C   0  0  0  0  0  0  0  0  0  0  0  0
    5.3110   -5.2740    0.0000 C   0  0  0  0  0  0  0  0  0  0  0  0
    5.0490   -4.4940    0.0000 C   0  0  0  0  0  0  0  0  0  0  0  0
    5.2940   -4.2990    0.0000 C   0  0  0  0  0  0  0  0  0  0  0  0
    5.7100   -5.0100    0.0000 C   0  0  0  0  0  0  0  0  0  0  0  0
    6.5360   -5.0060    0.0000 C   0  0  0  0  0  0  0  0  0  0  0  0
    6.9440   -4.2840    0.0000 C   0  0  0  0  0  0  0  0  0  0  0  0
    6.5260   -3.5760    0.0000 C   0  0  0  0  0  0  0  0  0  0  0  0
    6.9310   -2.8570    0.0000 C   0  0  0  0  0  0  0  0  0  0  0  0
    7.7690   -4.2770    0.0000 F   0  0  0  0  0  0  0  0  0  0  0  0
    5.5880   -1.8680    0.0000 C   0  0  0  0  0  0  0  0  0  0  0  0
    6.3910   -1.6950    0.0000 C   0  0  1  0  0  0  0  0  0  0  0  0
    6.6450   -0.9100    0.0000 N   0  0  0  0  0  0  0  0  0  0  0  0
    6.0910   -0.2970    0.0000 C   0  0  0  0  0  0  0  0  0  0  0  0
    5.2810   -0.4700    0.0000 C   0  0  0  0  0  0  0  0  0  0  0  0
    6.7960   -2.4040    0.0000 C   0  0  0  0  0  0  0  0  0  0  0  0
    7.5920   -2.6170    0.0000 C   0  0  0  0  0  0  0  0  0  0  0  0
    8.0000   -3.3290    0.0000 N   0  0  0  0  0  0  0  0  0  0  0  0
    8.0950   -1.9630    0.0000 O   0  0  0  0  0  0  0  0  0  0  0  0
    8.7960   -3.1120    0.0000 C   0  0  0  0  0  0  0  0  0  0  0  0
    9.2040   -3.8250    0.0000 C   0  0  0  0  0  0  0  0  0  0  0  0
   10.0000   -3.6080    0.0000 O   0  0  0  0  0  0  0  0  0  0  0  0
    0.3470   -2.4780    0.0000 C   0  0  0  0  0  0  0  0  0  0  0  0
   -0.3640   -2.0670    0.0000 C   0  0  0  0  0  0  0  0  0  0  0  0
   -1.0800   -2.4770    0.0000 C   0  0  0  0  0  0  0  0  0  0  0  0
   -1.0810   -3.3030    0.0000 C   0  0  0  0  0  0  0  0  0  0  0  0
   -0.3660   -3.7190    0.0000 C   0  0  0  0  0  0  0  0  0  0  0  0
 11 31  1  0  0  0  0
  3  6  1  0  0  0  0
  2 16  1  0  0  0  0
  6  7  2  0  0  0  0
 16 17  1  0  0  0  0
  7  8  1  0  0  0  0
 11 35  1  0  0  0  0
 31 32  1  0  0  0  0
 32 33  1  0  0  0  0
 33 34  1  0  0  0  0
 34 35  1  0  0  0  0
 16 18  2  0  0  0  0
  8  9  2  0  0  0  0
 32 36  1  1  0  0  0
 36 37  1  0  0  0  0
  9  5  1  0  0  0  0
 37 38  1  0  0  0  0
 37 39  2  0  0  0  0
  5  4  1  0  0  0  0
 15 19  2  0  0  0  0
  9 10  1  0  0  0  0
 19 20  1  0  0  0  0
  5  6  1  0  0  0  0
 20 21  2  0  0  0  0
 10 11  1  0  0  0  0
 38 40  1  0  0  0  0
 21 22  1  0  0  0  0
 40 41  1  0  0  0  0
 41 42  1  0  0  0  0
 22 23  2  0  0  0  0
 23 15  1  0  0  0  0
 10 12  2  0  0  0  0
 14 24  2  0  0  0  0
  1  2  1  0  0  0  0
 24 25  1  0  0  0  0
  8 13  1  0  0  0  0
 17 43  1  0  0  0  0
 25 26  2  0  0  0  0
  1  4  2  0  0  0  0
 26 27  1  0  0  0  0
 13 14  1  0  0  0  0
 17 47  1  0  0  0  0
 43 44  1  0  0  0  0
 44 45  1  0  0  0  0
 45 46  1  0  0  0  0
 46 47  1  0  0  0  0
 27 28  2  0  0  0  0
 28 14  1  0  0  0  0
  2  3  2  0  0  0  0
 28 29  1  0  0  0  0
  7 15  1  0  0  0  0
 27 30  1  0  0  0  0
M  END
>  <ID_NEW>
CPDRE1041

>  <pIC50>
8.154901959985743

$$$$

  SciTegic12180813492D

 34 38  0  0  0  0            999 V2000
   -4.6188    1.5718    0.0000 C   0  0
   -5.2289    1.2162    0.0000 C   0  0
   -5.2260    0.5121    0.0000 C   0  0
   -4.6089    0.1635    0.0000 C   0  0
   -4.0101    1.2232    0.0000 C   0  0
   -4.0029    0.5233    0.0000 C   0  0
   -3.3355    0.3078    0.0000 N   0  0
   -2.9212    0.8779    0.0000 C   0  0
   -3.3453    1.4474    0.0000 C   0  0
   -3.1154   -0.3610    0.0000 C   0  0
   -3.5774   -0.8875    0.0000 C   0  0
   -3.3574   -1.5563    0.0000 C   0  0
   -2.6670   -1.6989    0.0000 C   0  0
   -2.1968   -1.1683    0.0000 C   0  0
   -2.4210   -0.4994    0.0000 C   0  0
   -3.1301    2.1190    0.0000 C   0  0
   -2.4443    2.2670    0.0000 O   0  0
   -3.6045    2.6388    0.0000 N   0  0
   -3.3934    3.3104    0.0000 C   0  0
   -3.8679    3.8301    0.0000 C   0  0
   -4.5536    3.6780    0.0000 N   0  0
   -4.7689    3.0064    0.0000 C   0  0
   -4.2944    2.4867    0.0000 C   0  0
   -2.4470   -2.3636    0.0000 F   0  0
   -5.8318    0.1524    0.0000 O   0  0
   -1.7866    1.3099    0.0000 C   0  0
   -1.0908    1.1896    0.0000 C   0  0
   -2.0269    1.9656    0.0000 C   0  0
   -2.2296    0.7619    0.0000 C   0  0
   -0.6435    1.7334    0.0000 C   0  0
   -0.8422    0.5298    0.0000 C   0  0
   -1.5796    2.5051    0.0000 C   0  0
   -0.8838    2.3890    0.0000 C   0  0
    0.0508    1.6171    0.0000 F   0  0
  8  9  2  0
  9  5  1  0
  7 10  1  0
 10 11  2  0
 11 12  1  0
 26 27  2  0
 26 28  1  0
 26 29  1  0
 27 30  1  0
 27 31  1  0
 28 32  2  0
 30 33  2  0
 32 33  1  0
  8 29  1  0
 12 13  2  0
 13 14  1  0
 14 15  2  0
 15 10  1  0
  5  1  1  0
  1  2  2  0
  2  3  1  0
  3  4  2  0
  4  6  1  0
  5  6  2  0
 30 34  1  0
  9 16  1  0
 16 17  2  0
 16 18  1  0
 18 19  1  0
 18 23  1  0
 19 20  1  0
 20 21  1  0
 21 22  1  0
 22 23  1  0
 13 24  1  0
  3 25  1  0
  6  7  1  0
  7  8  1  0
M  END
>  <ID_NEW>
CPDRE1042

>  <pIC50>
8.096910013008056

$$$$

  SciTegic12180813452D

 34 38  0  0  0  0            999 V2000
   -0.2693   -0.5445    0.0000 N   0  0
    0.2293    0.1479    0.0000 C   0  0
   -0.2772    0.8302    0.0000 C   0  0
   -0.0014   -1.3484    0.0000 C   0  0
   -0.0184    1.6413    0.0000 C   0  0
    0.8083    1.8217    0.0000 O   0  0
   -0.5697   -1.9767    0.0000 C   0  0
   -0.3024   -2.7842    0.0000 C   0  0
    0.5313   -2.9558    0.0000 C   0  0
    1.0931   -2.3179    0.0000 C   0  0
    0.8272   -1.5128    0.0000 C   0  0
   -0.5907    2.2678    0.0000 N   0  0
   -0.3286    3.0759    0.0000 C   0  0
   -0.8969    3.7053    0.0000 C   0  0
   -1.7291    3.5247    0.0000 N   0  0
   -1.9857    2.7175    0.0000 C   0  0
   -1.4186    2.0866    0.0000 C   0  0
    1.0751    0.1528    0.0000 O   0  0
    1.9250    0.1542    0.0000 C   0  0
    2.3494   -0.5827    0.0000 C   0  0
    3.1985   -0.5817    0.0000 C   0  0
    3.6190    0.1549    0.0000 C   0  0
    3.1925    0.8918    0.0000 C   0  0
    2.3447    0.8872    0.0000 C   0  0
    1.9242   -1.3179    0.0000 C   0  0
   -1.0776   -0.2853    0.0000 C   0  0
   -1.0792    0.5639    0.0000 C   0  0
   -1.8134    0.9811    0.0000 C   0  0
   -2.5466    0.5587    0.0000 C   0  0
   -2.5410   -0.2936    0.0000 C   0  0
   -1.8062   -0.7113    0.0000 C   0  0
    3.6027    1.6076    0.0000 F   0  0
   -3.2527   -0.7108    0.0000 O   0  0
   -3.9699   -0.3031    0.0000 C   0  0
  5  6  2  0
  4  7  2  0
  7  8  1  0
  8  9  2  0
  9 10  1  0
 10 11  2  0
 11  4  1  0
  5 12  1  0
 12 13  1  0
 12 17  1  0
 13 14  1  0
 14 15  1  0
 15 16  1  0
 16 17  1  0
  2 18  1  0
 18 19  1  0
 19 20  2  0
 20 21  1  0
 21 22  2  0
 22 23  1  0
 23 32  1  0
 30 33  1  0
 33 34  1  0
 23 24  2  0
 24 19  1  0
 20 25  1  0
 26 27  2  0
 27 28  1  0
 28 29  2  0
 29 30  1  0
 30 31  2  0
 31 26  1  0
 26  1  1  0
  1  2  1  0
  2  3  2  0
  3 27  1  0
  1  4  1  0
  3  5  1  0
M  END
>  <ID_NEW>
CPDRE1043

>  <pIC50>
8.096910013008056

$$$$

  SciTegic12180813512D

 32 36  0  0  0  0            999 V2000
    7.1292    0.3042    0.0000 N   0  0
    7.3417    1.1042    0.0000 C   0  0
    6.7583    1.6850    0.0000 C   0  0
    5.9593    1.4714    0.0000 N   0  0
    5.7468    0.6714    0.0000 C   0  0
    6.3333    0.0850    0.0000 C   0  0
    9.2860   -1.9208    0.0000 C   0  0
    9.2807   -2.7440    0.0000 C   0  0
    9.9899   -3.1584    0.0000 C   0  0
   10.7048   -2.7507    0.0000 C   0  0
   10.7061   -1.9243    0.0000 C   0  0
    9.9964   -1.5137    0.0000 C   0  0
    6.0045   -2.5736    0.0000 C   0  0
    5.2880   -2.1602    0.0000 C   0  0
    5.2909   -1.3297    0.0000 N   0  0
    6.0063   -0.9206    0.0000 C   0  0
    6.7193   -2.1607    0.0000 C   0  0
    6.7226   -1.3364    0.0000 C   0  0
    7.5076   -1.0848    0.0000 C   0  0
    7.9895   -1.7537    0.0000 C   0  0
    7.5022   -2.4185    0.0000 N   0  0
    7.7540   -3.2042    0.0000 C   0  0
    8.5620   -3.3763    0.0000 C   0  0
    8.8138   -4.1611    0.0000 C   0  0
    8.2590   -4.7729    0.0000 C   0  0
    7.4492   -4.5946    0.0000 C   0  0
    7.2011   -3.8100    0.0000 C   0  0
    8.7000   -1.3333    0.0000 C   0  0
   11.5000   -1.7042    0.0000 F   0  0
    7.7167   -0.2833    0.0000 C   0  0
    8.5125   -0.0667    0.0000 O   0  0
    9.9917   -0.6875    0.0000 C   0  0
  4  5  1  0
  5  6  1  0
  1  2  1  0
 13 14  2  0
 14 15  1  0
 15 16  2  0
 16 18  1  0
 17 18  2  0
 18 19  1  0
 19 20  2  0
 20 28  1  0
 28  7  1  0
 10 11  1  0
  8  9  1  0
 11 29  1  0
 11 12  2  0
 12  7  1  0
  7  8  2  0
  9 10  2  0
 20 21  1  0
 21 17  1  0
 21 22  1  0
 22 23  2  0
 23 24  1  0
 24 25  2  0
 25 26  1  0
 26 27  2  0
 27 22  1  0
 17 13  1  0
  1  6  1  0
 19 30  1  0
  2  3  1  0
 30 31  2  0
 30  1  1  0
  3  4  1  0
 12 32  1  0
M  END
>  <ID_NEW>
CPDRE1044

>  <pIC50>
8.096910013008056

$$$$

  SciTegic12180813522D

 36 40  0  0  0  0            999 V2000
    1.2756    0.5823    0.0000 C   0  0
    1.9766    1.0218    0.0000 C   0  0
    1.9456    1.8467    0.0000 C   0  0
    1.2142    2.2331    0.0000 C   0  0
    0.5127    1.7885    0.0000 C   0  0
    0.5473    0.9651    0.0000 C   0  0
   -0.1498    0.5238    0.0000 O   0  0
    1.3070   -0.2421    0.0000 C   0  0
    1.1817    3.0574    0.0000 F   0  0
   -3.2084    3.4160    0.0000 N   0  0
   -3.2109    2.5901    0.0000 C   0  0
   -2.4824    3.8315    0.0000 C   0  0
   -2.4957    2.1708    0.0000 C   0  0
   -1.7661    3.4169    0.0000 C   0  0
   -1.7698    2.5863    0.0000 N   0  0
   -3.6865    0.9274    0.0000 C   0  0
   -3.6877    0.1000    0.0000 C   0  0
   -2.9729   -0.3128    0.0000 C   0  0
   -2.9747    1.3402    0.0000 C   0  0
   -1.4680    1.1897    0.0000 C   0  0
   -2.2593    0.9310    0.0000 C   0  0
   -2.2567    0.0979    0.0000 C   0  0
   -1.4629   -0.1558    0.0000 N   0  0
   -0.9776    0.5215    0.0000 C   0  0
   -1.0423   -0.8749    0.0000 C   0  0
   -0.2250   -0.8602    0.0000 C   0  0
   -1.4557   -1.5801    0.0000 C   0  0
    0.1943   -1.5769    0.0000 C   0  0
   -1.0365   -2.2968    0.0000 C   0  0
   -0.2091   -2.2994    0.0000 C   0  0
   -1.2157    1.9751    0.0000 C   0  0
   -0.4093    2.1493    0.0000 O   0  0
   -4.4025   -0.3119    0.0000 C   0  0
   -5.1166    0.1011    0.0000 O   0  0
   -4.4031   -1.1369    0.0000 O   0  0
   -5.8314   -0.3108    0.0000 C   0  0
  4  5  1  0
  2  3  1  0
  5  6  2  0
  6  1  1  0
  1  2  2  0
  6  7  1  0
  3  4  2  0
  1  8  1  0
  4  9  1  0
 10 11  1  0
 10 12  1  0
 11 13  1  0
 12 14  1  0
 13 15  1  0
 14 15  1  0
 17 18  2  0
 18 22  1  0
 16 17  1  0
 21 19  1  0
 20 21  1  0
 24  7  1  0
 20 31  1  0
 31 32  2  0
 31 15  1  0
 22 23  1  0
 23 24  1  0
 24 20  2  0
 25 26  1  0
 25 27  2  0
 25 23  1  0
 26 28  2  0
 27 29  1  0
 28 30  1  0
 29 30  2  0
 19 16  2  0
 21 22  2  0
 17 33  1  0
 33 34  1  0
 33 35  2  0
 34 36  1  0
M  END
>  <ID_NEW>
CPDRE1045

>  <pIC50>
8.096910013008056

$$$$

  SciTegic12180813562D

 33 37  0  0  0  0            999 V2000
    3.1125   -1.7793    0.0000 C   0  0
    3.1125   -2.5710    0.0000 C   0  0
    3.7954   -2.9626    0.0000 C   0  0
    3.7954   -1.3834    0.0000 N   0  0
    4.4740   -1.7793    0.0000 N   0  0
    4.4827   -2.5716    0.0000 C   0  0
    5.2278   -2.8087    0.0000 C   0  0
    5.6904   -2.1706    0.0000 C   0  0
    5.2205   -1.5379    0.0000 C   0  0
    6.4779   -2.1618    0.0000 C   0  0
    2.4278   -2.9720    0.0000 O   0  0
    5.4683   -3.5527    0.0000 C   0  0
    4.9458   -4.1304    0.0000 C   0  0
    5.1900   -4.8739    0.0000 C   0  0
    5.9561   -5.0376    0.0000 C   0  0
    6.4776   -4.4491    0.0000 C   0  0
    6.2312   -3.7073    0.0000 C   0  0
    5.4719   -0.7521    0.0000 C   0  0
    4.9171   -0.1415    0.0000 O   0  0
    6.8984   -2.8716    0.0000 C   0  0
    6.4891   -3.5884    0.0000 C   0  0
    6.9088   -4.2977    0.0000 C   0  0
    7.7347   -4.2890    0.0000 C   0  0
    8.1389   -3.5649    0.0000 C   0  0
    7.7168   -2.8585    0.0000 C   0  0
    8.1182   -2.1377    0.0000 C   0  0
    8.9638   -3.5528    0.0000 F   0  0
    6.2781   -0.5769    0.0000 N   0  0
    6.8313   -1.1937    0.0000 C   0  0
    7.6344   -1.0212    0.0000 C   0  0
    7.8899   -0.2364    0.0000 N   0  0
    7.3359    0.3762    0.0000 C   0  0
    6.5264    0.2040    0.0000 C   0  0
  9 18  1  0
  2  3  2  0
 18 19  2  0
  3  6  1  0
 10 20  1  0
 20 21  2  0
  6  7  2  0
 21 22  1  0
  7 12  1  0
 22 23  2  0
  7  8  1  0
 23 24  1  0
 12 13  2  0
 24 25  2  0
 25 20  1  0
  8  9  2  0
 25 26  1  0
 13 14  1  0
 24 27  1  0
 18 28  1  0
 28 29  1  0
  9  5  1  0
 14 15  2  0
  5  4  1  0
 15 16  1  0
 28 33  1  0
 29 30  1  0
 30 31  1  0
 31 32  1  0
 32 33  1  0
  8 10  1  0
 16 17  2  0
 17 12  1  0
  5  6  1  0
  2 11  1  0
  1  2  1  0
  1  4  2  0
M  END
>  <ID_NEW>
CPDRE1046

>  <pIC50>
8.096910013008056

$$$$

  SciTegic12180813522D

 33 37  0  0  0  0            999 V2000
   -5.0973    1.6625    0.0000 C   0  0
   -5.0985    0.8351    0.0000 C   0  0
   -4.3836    0.4223    0.0000 C   0  0
   -4.3854    2.0753    0.0000 C   0  0
   -2.8801    0.5798    0.0000 N   0  0
   -2.3924    1.2515    0.0000 C   0  0
   -2.8806    1.9230    0.0000 C   0  0
   -3.6701    1.6661    0.0000 C   0  0
   -3.6698    0.8360    0.0000 C   0  0
   -2.6249   -0.2048    0.0000 C   0  0
   -3.1792   -0.8165    0.0000 C   0  0
   -2.9246   -1.6004    0.0000 C   0  0
   -2.1168   -1.7723    0.0000 C   0  0
   -1.5641   -1.1540    0.0000 C   0  0
   -1.8217   -0.3725    0.0000 C   0  0
   -2.6260    2.7077    0.0000 C   0  0
   -1.8191    2.8795    0.0000 N   0  0
   -3.1782    3.3206    0.0000 O   0  0
   -1.2688    2.2630    0.0000 C   0  0
   -0.4650    2.4321    0.0000 C   0  0
   -0.2062    3.2159    0.0000 N   0  0
   -0.7577    3.8308    0.0000 C   0  0
   -1.5679    3.6620    0.0000 C   0  0
   -1.5674    1.2518    0.0000 C   0  0
   -0.9875    0.6708    0.0000 C   0  0
   -1.2037   -0.1222    0.0000 C   0  0
   -0.6247   -0.7029    0.0000 C   0  0
    0.1694   -0.4914    0.0000 C   0  0
    0.3812    0.3060    0.0000 C   0  0
   -0.1994    0.8833    0.0000 C   0  0
   -1.9209    0.2916    0.0000 F   0  0
   -5.8118    2.0748    0.0000 O   0  0
    0.0124    1.6807    0.0000 C   0  0
  1  2  2  0
  2  3  1  0
  3  9  2  0
  8  4  2  0
  4  1  1  0
  8  9  1  0
  6  7  2  0
  5  6  1  0
  7  8  1  0
  9  5  1  0
  5 10  1  0
 10 11  2  0
 11 12  1  0
 12 13  2  0
 13 14  1  0
 14 15  2  0
 15 10  1  0
  7 16  1  0
 16 17  1  0
 16 18  2  0
 17 19  1  0
 17 23  1  0
 19 20  1  0
 20 21  1  0
 21 22  1  0
 22 23  1  0
  6 24  1  0
 24 25  1  0
 25 26  2  0
 26 27  1  0
 27 28  2  0
 28 29  1  0
 29 30  2  0
 30 25  1  0
 26 31  1  0
  1 32  1  0
 30 33  1  0
M  END
>  <ID_NEW>
CPDRE1047

>  <pIC50>
8.096910013008056

$$$$

  SciTegic12180813542D

 33 37  0  0  0  0            999 V2000
   -5.8306    1.1709    0.0000 C   0  0
   -5.8318    0.3435    0.0000 C   0  0
   -5.1169   -0.0694    0.0000 N   0  0
   -5.1187    1.5836    0.0000 C   0  0
   -3.6120    1.4331    0.0000 N   0  0
   -4.4034    1.1745    0.0000 C   0  0
   -4.4008    0.3414    0.0000 C   0  0
   -3.6070    0.0877    0.0000 C   0  0
   -3.1216    0.7649    0.0000 C   0  0
   -3.6125   -0.7333    0.0000 C   0  0
   -4.3292   -1.1417    0.0000 O   0  0
   -3.0292   -1.3167    0.0000 N   0  0
   -3.2448   -2.1139    0.0000 C   0  0
   -2.6655   -2.6961    0.0000 C   0  0
   -1.8672   -2.4866    0.0000 N   0  0
   -1.6515   -1.6894    0.0000 C   0  0
   -2.2341   -1.1016    0.0000 C   0  0
   -3.4000    2.2333    0.0000 C   0  0
   -2.5992    2.4474    0.0000 C   0  0
   -2.3870    3.2468    0.0000 C   0  0
   -2.9743    3.8314    0.0000 C   0  0
   -3.7768    3.6113    0.0000 C   0  0
   -3.9852    2.8123    0.0000 C   0  0
   -1.5906    3.4621    0.0000 F   0  0
   -2.3000    0.7667    0.0000 O   0  0
   -1.4750    0.7667    0.0000 C   0  0
   -1.0644    0.0499    0.0000 C   0  0
   -0.2401    0.0495    0.0000 C   0  0
    0.1732    0.7645    0.0000 C   0  0
   -0.2437    1.4814    0.0000 C   0  0
   -1.0666    1.4782    0.0000 C   0  0
   -1.4814    2.1913    0.0000 C   0  0
   -1.4782   -0.6638    0.0000 C   0  0
  1  2  2  0
  2  3  1  0
  3  7  2  0
  6  4  2  0
  4  1  1  0
  6  7  1  0
  5  6  1  0
  7  8  1  0
  8  9  2  0
  9  5  1  0
  8 10  1  0
 10 11  2  0
 10 12  1  0
 12 13  1  0
 12 17  1  0
 13 14  1  0
 14 15  1  0
 15 16  1  0
 16 17  1  0
  5 18  1  0
 18 19  2  0
 19 20  1  0
 20 21  2  0
 21 22  1  0
 22 23  2  0
 23 18  1  0
 20 24  1  0
  9 25  1  0
 25 26  1  0
 26 27  2  0
 27 28  1  0
 28 29  2  0
 29 30  1  0
 30 31  2  0
 31 26  1  0
 31 32  1  0
 27 33  1  0
M  END
>  <ID_NEW>
CPDRE1048

>  <pIC50>
8.096910013008056

$$$$

  -MTS-   10172316392D 0   0.00000     0.00000     0

 34 38  0  0  1  0  0  0  0  0999 V2000
    5.1950   -4.8870    0.0000 C   0  0  0  0  0  0  0  0  0  0  0  0
    5.4060   -5.6810    0.0000 C   0  0  0  0  0  0  0  0  0  0  0  0
    6.1980   -5.8940    0.0000 C   0  0  0  0  0  0  0  0  0  0  0  0
    6.7800   -5.3140    0.0000 C   0  0  0  0  0  0  0  0  0  0  0  0
    6.5640   -4.5170    0.0000 C   0  0  0  0  0  0  0  0  0  0  0  0
    5.7730   -4.3080    0.0000 C   0  0  0  0  0  0  0  0  0  0  0  0
    4.0750   -3.0170    0.0000 N   0  0  0  0  0  0  0  0  0  0  0  0
    4.8710   -3.2290    0.0000 C   0  0  0  0  0  0  0  0  0  0  0  0
    5.4500   -2.6490    0.0000 C   0  0  2  0  0  0  0  0  0  0  0  0
    4.4420   -1.6410    0.0000 C   0  0  0  0  0  0  0  0  0  0  0  0
    3.8580   -2.2240    0.0000 C   0  0  0  0  0  0  0  0  0  0  0  0
    0.8930   -4.4850    0.0000 C   0  0  0  0  0  0  0  0  0  0  0  0
    0.8910   -5.3130    0.0000 C   0  0  0  0  0  0  0  0  0  0  0  0
    1.6060   -5.7250    0.0000 C   0  0  0  0  0  0  0  0  0  0  0  0
    1.6040   -4.0720    0.0000 N   0  0  0  0  0  0  0  0  0  0  0  0
    3.1110   -4.2230    0.0000 C   0  0  0  0  0  0  0  0  0  0  0  0
    2.3200   -4.4820    0.0000 C   0  0  0  0  0  0  0  0  0  0  0  0
    2.3220   -5.3150    0.0000 C   0  0  0  0  0  0  0  0  0  0  0  0
    3.1160   -5.5680    0.0000 N   0  0  0  0  0  0  0  0  0  0  0  0
    3.6020   -4.8910    0.0000 C   0  0  0  0  0  0  0  0  0  0  0  0
    3.5370   -6.2870    0.0000 C   0  0  0  0  0  0  0  0  0  0  0  0
    4.3540   -6.2730    0.0000 C   0  0  0  0  0  0  0  0  0  0  0  0
    3.1230   -6.9930    0.0000 C   0  0  0  0  0  0  0  0  0  0  0  0
    4.7730   -6.9890    0.0000 C   0  0  0  0  0  0  0  0  0  0  0  0
    3.5430   -7.7090    0.0000 C   0  0  0  0  0  0  0  0  0  0  0  0
    4.3700   -7.7120    0.0000 C   0  0  0  0  0  0  0  0  0  0  0  0
    3.3630   -3.4370    0.0000 C   0  0  0  0  0  0  0  0  0  0  0  0
    2.8090   -2.8260    0.0000 O   0  0  0  0  0  0  0  0  0  0  0  0
    6.2460   -2.8630    0.0000 C   0  0  0  0  0  0  0  0  0  0  0  0
    5.2290   -1.8460    0.0000 N   0  0  0  0  0  0  0  0  0  0  0  0
    4.3960   -4.6710    0.0000 O   0  0  0  0  0  0  0  0  0  0  0  0
    5.5580   -3.5120    0.0000 C   0  0  0  0  0  0  0  0  0  0  0  0
    4.8220   -6.2630    0.0000 C   0  0  0  0  0  0  0  0  0  0  0  0
    7.1460   -3.9290    0.0000 F   0  0  0  0  0  0  0  0  0  0  0  0
  1  2  2  0  0  0  0
  3  4  2  0  0  0  0
 21 22  2  0  0  0  0
 21 23  1  0  0  0  0
 21 19  1  0  0  0  0
 22 24  1  0  0  0  0
 23 25  2  0  0  0  0
 24 26  2  0  0  0  0
 25 26  1  0  0  0  0
 15 12  2  0  0  0  0
 17 18  2  0  0  0  0
 13 14  2  0  0  0  0
 14 18  1  0  0  0  0
 12 13  1  0  0  0  0
 17 15  1  0  0  0  0
 16 17  1  0  0  0  0
 16 27  1  0  0  0  0
 27 28  2  0  0  0  0
 27  7  1  0  0  0  0
  7  8  1  0  0  0  0
  9 29  1  1  0  0  0
  9 30  1  0  0  0  0
 10 30  1  0  0  0  0
  7 11  1  0  0  0  0
  8  9  1  0  0  0  0
 10 11  1  0  0  0  0
 18 19  1  0  0  0  0
 19 20  1  0  0  0  0
 20 16  2  0  0  0  0
  4  5  1  0  0  0  0
 20 31  1  0  0  0  0
 31  1  1  0  0  0  0
  2  3  1  0  0  0  0
  6 32  1  0  0  0  0
  5  6  2  0  0  0  0
  2 33  1  0  0  0  0
  6  1  1  0  0  0  0
  5 34  1  0  0  0  0
M  END
>  <ID_NEW>
CPDRE1049

>  <pIC50>
8.096910013008056

$$$$

  SciTegic12180813592D

 44 49  0  0  0  0            999 V2000
   -1.4720    0.3376    0.0000 C   0  0
   -1.0854   -0.3811    0.0000 C   0  0
   -1.0642    1.0445    0.0000 C   0  0
   -2.3084    0.3500    0.0000 O   0  0
   -0.2497   -0.3935    0.0000 C   0  0
   -1.4933   -1.0984    0.0000 C   0  0
   -0.2285    1.0322    0.0000 C   0  0
   -1.4507    1.7736    0.0000 C   0  0
    0.1723    0.3091    0.0000 C   0  0
   -2.6292    2.4458    0.0000 N   0  0
   -1.8292    2.2333    0.0000 C   0  0
   -1.2504    2.8131    0.0000 C   0  0
   -2.2620    3.8293    0.0000 C   0  0
   -2.8504    3.2423    0.0000 C   0  0
   -5.8281    0.9690    0.0000 C   0  0
   -5.8293    0.1374    0.0000 C   0  0
   -5.1104   -0.2754    0.0000 C   0  0
   -5.1122    1.3859    0.0000 N   0  0
   -3.5971    1.2313    0.0000 C   0  0
   -4.3926    0.9726    0.0000 C   0  0
   -4.3900    0.1353    0.0000 C   0  0
   -3.5920   -0.1184    0.0000 N   0  0
   -3.1067    0.5631    0.0000 C   0  0
   -3.1714   -0.8417    0.0000 C   0  0
   -2.3500   -0.8270    0.0000 C   0  0
   -3.5848   -1.5510    0.0000 C   0  0
   -1.9265   -1.5478    0.0000 C   0  0
   -3.1656   -2.2719    0.0000 C   0  0
   -2.3341   -2.2745    0.0000 C   0  0
   -3.3448    2.0208    0.0000 C   0  0
   -3.9031    2.6363    0.0000 O   0  0
   -1.4708    3.6209    0.0000 N   0  0
   -0.5417    2.4042    0.0000 C   0  0
    0.1727    2.8168    0.0000 C   0  0
    0.8873    2.4045    0.0000 N   0  0
    0.1725    3.6418    0.0000 O   0  0
    1.6017    2.8172    0.0000 C   0  0
    2.3162    2.4049    0.0000 C   0  0
    2.3104    1.5782    0.0000 C   0  0
    3.0207    1.1660    0.0000 C   0  0
    3.7375    1.5751    0.0000 O   0  0
    3.7393    2.4010    0.0000 C   0  0
    3.0243    2.8178    0.0000 C   0  0
    0.8875    1.5795    0.0000 C   0  0
  3  7  2  0
  3  8  1  0
  7  9  1  0
  5  9  2  0
 13 14  1  0
 21 22  1  0
 22 23  1  0
 23 19  2  0
 24 25  2  0
 24 26  1  0
 24 22  1  0
 25 27  1  0
 26 28  2  0
 27 29  2  0
 28 29  1  0
 18 15  2  0
 20 21  2  0
 16 17  2  0
 17 21  1  0
 15 16  1  0
 20 18  1  0
 19 20  1  0
 19 30  1  0
 23  4  1  0
 30 31  2  0
 30 10  1  0
 10 11  1  0
 12 32  1  0
 13 32  1  0
 10 14  1  0
 11 12  1  0
 12 33  1  0
 33 34  1  0
 34 35  1  0
 34 36  2  0
 35 37  1  0
 37 38  1  0
 38 39  1  0
  1  2  2  0
  1  3  1  0
  1  4  1  0
  2  5  1  0
 38 43  1  0
 39 40  1  0
 40 41  1  0
 41 42  1  0
 42 43  1  0
  2  6  1  0
 35 44  1  0
M  END
>  <ID_NEW>
CPDRE1050

>  <pIC50>
8.096910013008056

$$$$

  -MTS-   10172316392D 0   0.00000     0.00000     0

 45 49  0  0  1  0  0  0  0  0999 V2000
    4.2230   -6.6650    0.0000 N   0  0  0  0  0  0  0  0  0  0  0  0
    3.5970   -7.2000    0.0000 C   0  0  0  0  0  0  0  0  0  0  0  0
    3.7510   -8.0070    0.0000 C   0  0  0  0  0  0  0  0  0  0  0  0
    4.5290   -8.2820    0.0000 N   0  0  0  0  0  0  0  0  0  0  0  0
    5.1550   -7.7430    0.0000 C   0  0  2  0  0  0  0  0  0  0  0  0
    5.0020   -6.9290    0.0000 C   0  0  0  0  0  0  0  0  0  0  0  0
    5.9330   -8.0150    0.0000 C   0  0  0  0  0  0  0  0  0  0  0  0
    6.5170   -7.4250    0.0000 C   0  0  0  0  0  0  0  0  0  0  0  0
    6.2980   -6.6290    0.0000 O   0  0  0  0  0  0  0  0  0  0  0  0
    7.3150   -7.6340    0.0000 N   0  0  0  0  0  0  0  0  0  0  0  0
    7.5330   -8.4290    0.0000 C   0  0  0  0  0  0  0  0  0  0  0  0
    8.3310   -8.6380    0.0000 C   0  0  0  0  0  0  0  0  0  0  0  0
    8.5500   -9.4330    0.0000 O   0  0  0  0  0  0  0  0  0  0  0  0
    9.3480   -9.6420    0.0000 C   0  0  0  0  0  0  0  0  0  0  0  0
    6.5330   -6.1770    0.0000 C   0  0  0  0  0  0  0  0  0  0  0  0
    6.9450   -5.5010    0.0000 C   0  0  0  0  0  0  0  0  0  0  0  0
    6.5660   -4.8110    0.0000 C   0  0  0  0  0  0  0  0  0  0  0  0
    5.7440   -6.1590    0.0000 N   0  0  0  0  0  0  0  0  0  0  0  0
    5.3710   -5.4680    0.0000 N   0  0  0  0  0  0  0  0  0  0  0  0
    5.7760   -4.7870    0.0000 C   0  0  0  0  0  0  0  0  0  0  0  0
    5.2630   -4.1960    0.0000 C   0  0  0  0  0  0  0  0  0  0  0  0
    4.5360   -4.5000    0.0000 C   0  0  0  0  0  0  0  0  0  0  0  0
    4.6080   -5.2850    0.0000 C   0  0  0  0  0  0  0  0  0  0  0  0
    3.8590   -4.0980    0.0000 C   0  0  0  0  0  0  0  0  0  0  0  0
    7.7390   -5.5150    0.0000 C   0  0  0  0  0  0  0  0  0  0  0  0
    8.1480   -4.8420    0.0000 O   0  0  0  0  0  0  0  0  0  0  0  0
    8.1200   -6.2100    0.0000 N   0  0  0  0  0  0  0  0  0  0  0  0
    5.4450   -3.4360    0.0000 C   0  0  0  0  0  0  0  0  0  0  0  0
    6.1920   -3.2150    0.0000 C   0  0  0  0  0  0  0  0  0  0  0  0
    6.3700   -2.4530    0.0000 C   0  0  0  0  0  0  0  0  0  0  0  0
    5.8020   -1.9140    0.0000 C   0  0  0  0  0  0  0  0  0  0  0  0
    5.0500   -2.1450    0.0000 C   0  0  0  0  0  0  0  0  0  0  0  0
    4.8740   -2.9070    0.0000 C   0  0  0  0  0  0  0  0  0  0  0  0
    3.1390   -4.5010    0.0000 C   0  0  0  0  0  0  0  0  0  0  0  0
    2.4320   -4.0760    0.0000 C   0  0  0  0  0  0  0  0  0  0  0  0
    1.7130   -4.4780    0.0000 C   0  0  0  0  0  0  0  0  0  0  0  0
    1.7020   -5.3040    0.0000 C   0  0  0  0  0  0  0  0  0  0  0  0
    2.4160   -5.7260    0.0000 C   0  0  0  0  0  0  0  0  0  0  0  0
    3.1330   -5.3210    0.0000 C   0  0  0  0  0  0  0  0  0  0  0  0
    2.4450   -3.2510    0.0000 C   0  0  0  0  0  0  0  0  0  0  0  0
    1.0040   -4.0560    0.0000 F   0  0  0  0  0  0  0  0  0  0  0  0
    4.0170   -5.8670    0.0000 C   0  0  0  0  0  0  0  0  0  0  0  0
    3.2220   -5.6470    0.0000 O   0  0  0  0  0  0  0  0  0  0  0  0
    7.6920   -6.9160    0.0000 C   0  0  0  0  0  0  0  0  0  0  0  0
    8.9450   -6.2280    0.0000 C   0  0  0  0  0  0  0  0  0  0  0  0
  8  9  2  0  0  0  0
  8 10  1  0  0  0  0
  1  6  1  0  0  0  0
 10 11  1  0  0  0  0
 11 12  1  0  0  0  0
  2  3  1  0  0  0  0
 12 13  1  0  0  0  0
 23 19  1  0  0  0  0
 30 31  2  0  0  0  0
 19 18  1  0  0  0  0
 31 32  1  0  0  0  0
 22 24  1  0  0  0  0
 32 33  2  0  0  0  0
 33 28  1  0  0  0  0
 19 20  1  0  0  0  0
 16 25  1  0  0  0  0
 25 26  2  0  0  0  0
 15 16  1  0  0  0  0
 15 18  2  0  0  0  0
 25 27  1  0  0  0  0
 16 17  2  0  0  0  0
 17 20  1  0  0  0  0
 20 21  2  0  0  0  0
 21 28  1  0  0  0  0
 21 22  1  0  0  0  0
 28 29  2  0  0  0  0
 22 23  2  0  0  0  0
 29 30  1  0  0  0  0
 13 14  1  0  0  0  0
 24 34  1  0  0  0  0
  3  4  1  0  0  0  0
 34 35  2  0  0  0  0
 35 36  1  0  0  0  0
  4  5  1  0  0  0  0
 36 37  2  0  0  0  0
 37 38  1  0  0  0  0
  5  6  1  0  0  0  0
 38 39  2  0  0  0  0
 39 34  1  0  0  0  0
 35 40  1  0  0  0  0
  1  2  1  0  0  0  0
 36 41  1  0  0  0  0
  5  7  1  6  0  0  0
 23 42  1  0  0  0  0
 42 43  2  0  0  0  0
 42  1  1  0  0  0  0
 27 44  1  0  0  0  0
  7  8  1  0  0  0  0
 27 45  1  0  0  0  0
M  END
>  <ID_NEW>
CPDRE1051

>  <pIC50>
8.096910013008056

$$$$

  SciTegic12180813522D

 33 37  0  0  0  0            999 V2000
   -1.2214    0.2729    0.0000 N   0  0
   -1.2397   -0.5529    0.0000 C   0  0
   -0.4875    0.6743    0.0000 C   0  0
   -0.5328   -0.9859    0.0000 C   0  0
    0.2207    0.2460    0.0000 C   0  0
    0.2010   -0.5845    0.0000 N   0  0
   -1.7157   -2.2435    0.0000 C   0  0
   -1.7169   -3.0709    0.0000 C   0  0
   -1.0021   -3.4837    0.0000 C   0  0
   -1.0039   -1.8307    0.0000 N   0  0
    0.5028   -1.9812    0.0000 C   0  0
   -0.2885   -2.2399    0.0000 C   0  0
   -0.2859   -3.0730    0.0000 C   0  0
    0.5079   -3.3267    0.0000 N   0  0
    0.9932   -2.6494    0.0000 C   0  0
    0.9285   -4.0458    0.0000 C   0  0
    1.7458   -4.0311    0.0000 C   0  0
    0.5151   -4.7510    0.0000 C   0  0
    2.1651   -4.7478    0.0000 C   0  0
    0.9343   -5.4677    0.0000 C   0  0
    1.7617   -5.4703    0.0000 C   0  0
    0.7551   -1.1958    0.0000 C   0  0
    1.5615   -1.0216    0.0000 O   0  0
    1.7874   -2.8583    0.0000 C   0  0
    2.4999   -2.4416    0.0000 C   0  0
    3.2166   -2.8533    0.0000 C   0  0
    3.9286   -2.4373    0.0000 C   0  0
    3.9244   -1.6111    0.0000 C   0  0
    3.2023   -1.2025    0.0000 C   0  0
    2.4933   -1.6209    0.0000 C   0  0
    3.2196   -3.6783    0.0000 C   0  0
   -2.4317   -3.4828    0.0000 C   0  0
    4.6452   -2.8461    0.0000 F   0  0
  2  4  1  0
  3  5  1  0
  4  6  1  0
  5  6  1  0
  1  2  1  0
  1  3  1  0
 13 14  1  0
 14 15  1  0
 15 11  2  0
 16 17  1  0
 16 18  2  0
 16 14  1  0
 17 19  2  0
 18 20  1  0
 19 21  1  0
 20 21  2  0
 10  7  2  0
 12 13  2  0
  8  9  2  0
  9 13  1  0
  7  8  1  0
 12 10  1  0
 11 12  1  0
 11 22  1  0
 22 23  2  0
 15 24  1  0
 24 25  1  0
 25 26  2  0
 26 27  1  0
 27 28  2  0
 28 29  1  0
 29 30  2  0
 30 25  1  0
 26 31  1  0
 22  6  1  0
  8 32  1  0
 27 33  1  0
M  END
>  <ID_NEW>
CPDRE1052

>  <pIC50>
8.045757490560675

$$$$

  SciTegic12180813522D

 32 36  0  0  0  0            999 V2000
    4.1250   -4.2132    0.0000 N   0  0
    4.1225   -5.0391    0.0000 C   0  0
    4.8510   -3.7977    0.0000 C   0  0
    4.8377   -5.4584    0.0000 C   0  0
    5.5673   -4.2123    0.0000 C   0  0
    5.5636   -5.0429    0.0000 N   0  0
    3.6469   -6.7018    0.0000 C   0  0
    3.6457   -7.5292    0.0000 C   0  0
    4.3605   -7.9420    0.0000 C   0  0
    4.3587   -6.2890    0.0000 N   0  0
    5.8654   -6.4395    0.0000 C   0  0
    5.0741   -6.6982    0.0000 C   0  0
    5.0767   -7.5313    0.0000 C   0  0
    5.8705   -7.7850    0.0000 N   0  0
    6.3558   -7.1077    0.0000 C   0  0
    6.2911   -8.5041    0.0000 C   0  0
    7.1084   -8.4894    0.0000 C   0  0
    5.8777   -9.2093    0.0000 C   0  0
    7.5277   -9.2061    0.0000 C   0  0
    6.2969   -9.9260    0.0000 C   0  0
    7.1243   -9.9286    0.0000 C   0  0
    6.1177   -5.6541    0.0000 C   0  0
    6.9241   -5.4799    0.0000 O   0  0
    7.1808   -7.1030    0.0000 O   0  0
    7.8917   -6.6833    0.0000 C   0  0
    8.6102   -7.0921    0.0000 C   0  0
    9.3206   -6.6731    0.0000 C   0  0
    9.3131   -5.8468    0.0000 C   0  0
    8.5891   -5.4411    0.0000 C   0  0
    7.8817   -5.8625    0.0000 C   0  0
    8.6166   -7.9171    0.0000 Cl  0  0
    7.1619   -5.4592    0.0000 C   0  0
  4  6  1  0
  5  6  1  0
  8  9  2  0
  9 13  1  0
  7  8  1  0
 12 10  1  0
 11 12  1  0
 11 22  1  0
 22 23  2  0
 22  6  1  0
 13 14  1  0
 14 15  1  0
 15 11  2  0
 16 17  1  0
 16 18  2  0
 16 14  1  0
 17 19  2  0
 18 20  1  0
 19 21  1  0
 20 21  2  0
 10  7  2  0
 12 13  2  0
 15 24  1  0
 24 25  1  0
  1  2  1  0
 25 26  2  0
  1  3  1  0
 26 27  1  0
 27 28  2  0
 28 29  1  0
  2  4  1  0
 29 30  2  0
 30 25  1  0
  3  5  1  0
 26 31  1  0
 30 32  1  0
M  END
>  <ID_NEW>
CPDRE1053

>  <pIC50>
8.045757490560675

$$$$

  SciTegic12180813542D

 32 36  0  0  0  0            999 V2000
    4.3665    0.3293    0.0000 C   0  0
    5.3472   -0.2699    0.0000 C   0  0
    5.4516   -1.4204    0.0000 C   0  0
    6.4019    0.1877    0.0000 C   0  0
    7.1491   -0.6849    0.0000 C   0  0
    6.5597   -1.6789    0.0000 N   0  0
    7.1111   -2.6876    0.0000 C   0  0
    8.2517   -2.7085    0.0000 C   0  0
    8.8380   -1.7104    0.0000 C   0  0
    8.2824   -0.7026    0.0000 C   0  0
    6.6551    1.3234    0.0000 C   0  0
    7.7437    1.6556    0.0000 C   0  0
    7.9972    2.7899    0.0000 C   0  0
    7.1624    3.5802    0.0000 C   0  0
    6.0691    3.2307    0.0000 C   0  0
    5.8178    2.1016    0.0000 C   0  0
    4.5969   -2.1854    0.0000 C   0  0
    3.5207   -1.8136    0.0000 O   0  0
    4.8186   -3.3223    0.0000 N   0  0
    3.3715   -0.2349    0.0000 C   0  0
    2.3946    0.3649    0.0000 C   0  0
    1.4004   -0.1981    0.0000 C   0  0
    1.3812   -1.3630    0.0000 C   0  0
    2.3664   -1.9578    0.0000 C   0  0
    3.3596   -1.3906    0.0000 C   0  0
    2.4163    1.5232    0.0000 F   0  0
    2.3529   -3.1245    0.0000 F   0  0
    3.9601   -4.0814    0.0000 C   0  0
    4.1813   -5.2127    0.0000 C   0  0
    5.2559   -5.5876    0.0000 N   0  0
    6.1140   -4.8281    0.0000 C   0  0
    5.8977   -3.6856    0.0000 C   0  0
  6  7  1  0
  7  8  2  0
  8  9  1  0
  1 20  1  0
  1  2  1  0
 20 21  2  0
  9 10  2  0
 21 22  1  0
 10  5  1  0
 22 23  2  0
  4 11  1  0
 23 24  1  0
 11 12  2  0
 24 25  2  0
 25 20  1  0
 12 13  1  0
 21 26  1  0
  2  3  2  0
 24 27  1  0
 19 28  1  0
 13 14  2  0
 14 15  1  0
 15 16  2  0
 16 11  1  0
 19 32  1  0
 28 29  1  0
 29 30  1  0
 30 31  1  0
 31 32  1  0
  3 17  1  0
  3  6  1  0
 17 18  2  0
  5  4  2  0
 17 19  1  0
  4  2  1  0
  5  6  1  0
M  END
>  <ID_NEW>
CPDRE1054

>  <pIC50>
8.045757490560675

$$$$

  -MTS-   10172316392D 0   0.00000     0.00000     0

 34 38  0  0  1  0  0  0  0  0999 V2000
   10.2790   -5.4530    0.0000 C   0  0  0  0  0  0  0  0  0  0  0  0
   10.4900   -6.2480    0.0000 C   0  0  0  0  0  0  0  0  0  0  0  0
   11.2810   -6.4610    0.0000 C   0  0  0  0  0  0  0  0  0  0  0  0
   11.8630   -5.8800    0.0000 C   0  0  0  0  0  0  0  0  0  0  0  0
   11.6480   -5.0840    0.0000 C   0  0  0  0  0  0  0  0  0  0  0  0
   10.8560   -4.8750    0.0000 C   0  0  0  0  0  0  0  0  0  0  0  0
    7.9420   -3.2170    0.0000 N   0  0  0  0  0  0  0  0  0  0  0  0
    8.1540   -2.4170    0.0000 C   0  0  0  0  0  0  0  0  0  0  0  0
    7.5710   -1.8360    0.0000 C   0  0  1  0  0  0  0  0  0  0  0  0
    6.7720   -2.0490    0.0000 N   0  0  0  0  0  0  0  0  0  0  0  0
    6.5590   -2.8490    0.0000 C   0  0  0  0  0  0  0  0  0  0  0  0
    7.1460   -3.4360    0.0000 C   0  0  0  0  0  0  0  0  0  0  0  0
    6.0590   -4.8520    0.0000 C   0  0  0  0  0  0  0  0  0  0  0  0
    6.0580   -5.6790    0.0000 C   0  0  0  0  0  0  0  0  0  0  0  0
    6.7730   -6.0920    0.0000 C   0  0  0  0  0  0  0  0  0  0  0  0
    6.7710   -4.4390    0.0000 N   0  0  0  0  0  0  0  0  0  0  0  0
    8.2780   -4.5900    0.0000 C   0  0  0  0  0  0  0  0  0  0  0  0
    7.4860   -4.8480    0.0000 C   0  0  0  0  0  0  0  0  0  0  0  0
    7.4890   -5.6810    0.0000 C   0  0  0  0  0  0  0  0  0  0  0  0
    8.2830   -5.9350    0.0000 N   0  0  0  0  0  0  0  0  0  0  0  0
    8.7680   -5.2580    0.0000 C   0  0  0  0  0  0  0  0  0  0  0  0
    8.5300   -3.8040    0.0000 C   0  0  0  0  0  0  0  0  0  0  0  0
    9.3360   -3.6300    0.0000 O   0  0  0  0  0  0  0  0  0  0  0  0
    7.9790   -1.1170    0.0000 C   0  0  0  0  0  0  0  0  0  0  0  0
    9.5620   -5.0370    0.0000 O   0  0  0  0  0  0  0  0  0  0  0  0
   10.6410   -4.0780    0.0000 C   0  0  0  0  0  0  0  0  0  0  0  0
   11.4940   -7.2580    0.0000 F   0  0  0  0  0  0  0  0  0  0  0  0
    8.2750   -6.7580    0.0000 C   0  0  0  0  0  0  0  0  0  0  0  0
    7.5560   -7.1620    0.0000 C   0  0  0  0  0  0  0  0  0  0  0  0
    7.5460   -7.9810    0.0000 C   0  0  0  0  0  0  0  0  0  0  0  0
    8.2540   -8.4040    0.0000 C   0  0  0  0  0  0  0  0  0  0  0  0
    8.9720   -8.0000    0.0000 C   0  0  0  0  0  0  0  0  0  0  0  0
    8.9840   -7.1740    0.0000 C   0  0  0  0  0  0  0  0  0  0  0  0
    9.9050   -6.8300    0.0000 C   0  0  0  0  0  0  0  0  0  0  0  0
  2  3  1  0  0  0  0
 20 28  1  0  0  0  0
 28 29  1  0  0  0  0
  5  6  2  0  0  0  0
  6  1  1  0  0  0  0
  1  2  2  0  0  0  0
 16 13  1  0  0  0  0
 28 33  1  0  0  0  0
 29 30  1  0  0  0  0
 30 31  1  0  0  0  0
 31 32  1  0  0  0  0
 32 33  1  0  0  0  0
 18 19  1  0  0  0  0
  2 34  1  0  0  0  0
 14 15  1  0  0  0  0
 15 19  2  0  0  0  0
 13 14  2  0  0  0  0
 18 16  2  0  0  0  0
 17 18  1  0  0  0  0
 17 22  1  0  0  0  0
 22 23  2  0  0  0  0
 22  7  1  0  0  0  0
  9 10  1  0  0  0  0
 10 11  1  0  0  0  0
 11 12  1  0  0  0  0
  7  8  1  0  0  0  0
  7 12  1  0  0  0  0
  8  9  1  0  0  0  0
 19 20  1  0  0  0  0
  9 24  1  1  0  0  0
 20 21  1  0  0  0  0
 21 17  2  0  0  0  0
  3  4  2  0  0  0  0
 21 25  1  0  0  0  0
 25  1  1  0  0  0  0
  6 26  1  0  0  0  0
  4  5  1  0  0  0  0
  3 27  1  0  0  0  0
M  END
>  <ID_NEW>
CPDRE1055

>  <pIC50>
8.045757490560675

$$$$

  -MTS-   10172316392D 0   0.00000     0.00000     0

 43 47  0  0  1  0  0  0  0  0999 V2000
    5.7950   -3.1790    0.0000 C   0  0  0  0  0  0  0  0  0  0  0  0
    6.1810   -3.8980    0.0000 C   0  0  0  0  0  0  0  0  0  0  0  0
    6.2020   -2.4720    0.0000 C   0  0  0  0  0  0  0  0  0  0  0  0
    4.9580   -3.1670    0.0000 O   0  0  0  0  0  0  0  0  0  0  0  0
    7.0170   -3.9100    0.0000 C   0  0  0  0  0  0  0  0  0  0  0  0
    5.7730   -4.6150    0.0000 C   0  0  0  0  0  0  0  0  0  0  0  0
    7.0380   -2.4840    0.0000 C   0  0  0  0  0  0  0  0  0  0  0  0
    5.8160   -1.7430    0.0000 C   0  0  0  0  0  0  0  0  0  0  0  0
    7.4390   -3.2080    0.0000 C   0  0  0  0  0  0  0  0  0  0  0  0
    4.6370   -1.0710    0.0000 N   0  0  0  0  0  0  0  0  0  0  0  0
    5.4370   -1.2830    0.0000 C   0  0  0  0  0  0  0  0  0  0  0  0
    6.0160   -0.7040    0.0000 C   0  0  1  0  0  0  0  0  0  0  0  0
    5.0050    0.3130    0.0000 C   0  0  0  0  0  0  0  0  0  0  0  0
    4.4160   -0.2740    0.0000 C   0  0  0  0  0  0  0  0  0  0  0  0
    1.4390   -2.5480    0.0000 C   0  0  0  0  0  0  0  0  0  0  0  0
    1.4370   -3.3790    0.0000 C   0  0  0  0  0  0  0  0  0  0  0  0
    2.1560   -3.7920    0.0000 C   0  0  0  0  0  0  0  0  0  0  0  0
    2.1540   -2.1310    0.0000 N   0  0  0  0  0  0  0  0  0  0  0  0
    3.6700   -2.2850    0.0000 C   0  0  0  0  0  0  0  0  0  0  0  0
    2.8740   -2.5440    0.0000 C   0  0  0  0  0  0  0  0  0  0  0  0
    2.8770   -3.3810    0.0000 C   0  0  0  0  0  0  0  0  0  0  0  0
    3.6750   -3.6350    0.0000 N   0  0  0  0  0  0  0  0  0  0  0  0
    4.1600   -2.9540    0.0000 C   0  0  0  0  0  0  0  0  0  0  0  0
    4.0950   -4.3580    0.0000 C   0  0  0  0  0  0  0  0  0  0  0  0
    4.9170   -4.3440    0.0000 C   0  0  0  0  0  0  0  0  0  0  0  0
    3.6820   -5.0680    0.0000 C   0  0  0  0  0  0  0  0  0  0  0  0
    5.3400   -5.0640    0.0000 C   0  0  0  0  0  0  0  0  0  0  0  0
    4.1010   -5.7890    0.0000 C   0  0  0  0  0  0  0  0  0  0  0  0
    4.9330   -5.7910    0.0000 C   0  0  0  0  0  0  0  0  0  0  0  0
    3.9220   -1.4960    0.0000 C   0  0  0  0  0  0  0  0  0  0  0  0
    3.3640   -0.8800    0.0000 O   0  0  0  0  0  0  0  0  0  0  0  0
    5.7960    0.1040    0.0000 N   0  0  0  0  0  0  0  0  0  0  0  0
    6.7250   -1.1120    0.0000 C   0  0  0  0  0  0  0  0  0  0  0  0
    7.4390   -0.7000    0.0000 C   0  0  0  0  0  0  0  0  0  0  0  0
    8.1540   -1.1120    0.0000 N   0  0  0  0  0  0  0  0  0  0  0  0
    7.4390    0.1250    0.0000 O   0  0  0  0  0  0  0  0  0  0  0  0
    8.8680   -0.6990    0.0000 C   0  0  0  0  0  0  0  0  0  0  0  0
    9.5830   -1.1120    0.0000 C   0  0  0  0  0  0  0  0  0  0  0  0
   10.2970   -0.6990    0.0000 C   0  0  0  0  0  0  0  0  0  0  0  0
    8.9920   -1.6920    0.0000 C   0  0  0  0  0  0  0  0  0  0  0  0
   11.0120   -1.1110    0.0000 N   0  0  0  0  0  0  0  0  0  0  0  0
   10.2970    0.1260    0.0000 O   0  0  0  0  0  0  0  0  0  0  0  0
   10.1620   -1.6920    0.0000 C   0  0  0  0  0  0  0  0  0  0  0  0
 22 23  1  0  0  0  0
 23 19  2  0  0  0  0
 24 25  2  0  0  0  0
 24 26  1  0  0  0  0
 24 22  1  0  0  0  0
 25 27  1  0  0  0  0
 26 28  2  0  0  0  0
 27 29  2  0  0  0  0
 28 29  1  0  0  0  0
 18 15  2  0  0  0  0
 20 21  2  0  0  0  0
 16 17  2  0  0  0  0
 17 21  1  0  0  0  0
 15 16  1  0  0  0  0
 20 18  1  0  0  0  0
 19 20  1  0  0  0  0
 19 30  1  0  0  0  0
 23  4  1  0  0  0  0
 30 31  2  0  0  0  0
 30 10  1  0  0  0  0
 10 11  1  0  0  0  0
 12 32  1  0  0  0  0
 13 32  1  0  0  0  0
 10 14  1  0  0  0  0
 11 12  1  0  0  0  0
 12 33  1  1  0  0  0
 33 34  1  0  0  0  0
 34 35  1  0  0  0  0
 34 36  2  0  0  0  0
 35 37  1  0  0  0  0
 37 38  1  0  0  0  0
 38 39  1  0  0  0  0
 38 40  1  0  0  0  0
 39 41  1  0  0  0  0
 39 42  2  0  0  0  0
 38 43  1  0  0  0  0
  1  2  2  0  0  0  0
  1  3  1  0  0  0  0
  1  4  1  0  0  0  0
  2  5  1  0  0  0  0
  2  6  1  0  0  0  0
  3  7  2  0  0  0  0
  3  8  1  0  0  0  0
  7  9  1  0  0  0  0
  5  9  2  0  0  0  0
 13 14  1  0  0  0  0
 21 22  1  0  0  0  0
M  END
>  <ID_NEW>
CPDRE1056

>  <pIC50>
8.045757490560675

$$$$

  SciTegic12180813522D

 32 36  0  0  0  0            999 V2000
    8.9930  -12.0324    0.0000 C   0  0
    8.3025  -12.2143    0.0000 C   0  0
    8.1162  -12.9019    0.0000 C   0  0
    8.6194  -13.4081    0.0000 C   0  0
    9.3116  -13.2221    0.0000 C   0  0
    9.4947  -12.5349    0.0000 C   0  0
   10.8064  -11.2618    0.0000 C   0  0
   11.4027  -12.3125    0.0000 C   0  0
   12.0096  -11.9671    0.0000 C   0  0
   12.0113  -11.2659    0.0000 C   0  0
   11.4095  -10.9169    0.0000 C   0  0
    7.8919  -11.4777    0.0000 C   0  0
    7.8937  -10.0580    0.0000 N   0  0
    7.2825  -10.4088    0.0000 C   0  0
    7.2819  -11.1231    0.0000 C   0  0
    8.5068  -11.1231    0.0000 C   0  0
    8.5055  -10.4111    0.0000 C   0  0
    9.1823  -10.1899    0.0000 C   0  0
    9.6019  -10.7652    0.0000 C   0  0
    9.1843  -11.3419    0.0000 N   0  0
    9.4000   -9.5158    0.0000 C   0  0
   10.0926   -9.3673    0.0000 N   0  0
    8.9251   -8.9903    0.0000 O   0  0
   10.5683   -9.8977    0.0000 C   0  0
   11.2582   -9.7515    0.0000 C   0  0
   11.4254   -9.0074    0.0000 N   0  0
   11.0053   -8.5510    0.0000 C   0  0
   10.3099   -8.6969    0.0000 C   0  0
   10.3083  -10.7625    0.0000 C   0  0
   10.8000  -11.9500    0.0000 C   0  0
   10.3000  -12.4458    0.0000 Cl  0  0
   11.5875  -10.2417    0.0000 F   0  0
  4  5  1  0
  9 10  1  0
  2  3  1  0
 10 11  2  0
 11  7  1  0
  5  6  2  0
  6  1  1  0
 13 17  1  0
 14 15  1  0
 16 17  2  0
 17 18  1  0
 18 19  2  0
 19 20  1  0
 20 16  1  0
 18 21  1  0
 21 22  1  0
 21 23  2  0
 22 24  1  0
 22 28  1  0
 24 25  1  0
 25 26  1  0
 26 27  1  0
 27 28  1  0
 16 12  1  0
 12 15  2  0
 14 13  2  0
  1  2  2  0
 19 29  1  0
 29  7  1  0
 20  1  1  0
  3  4  2  0
  7 30  2  0
 30  8  1  0
 30 31  1  0
  8  9  2  0
 11 32  1  0
M  END
>  <ID_NEW>
CPDRE1057

>  <pIC50>
8.0

$$$$

  -MTS-   10172316392D 0   0.00000     0.00000     0

 38 42  0  0  1  0  0  0  0  0999 V2000
    2.0320   -4.5960    0.0000 C   0  0  0  0  0  0  0  0  0  0  0  0
    2.0310   -5.4230    0.0000 C   0  0  0  0  0  0  0  0  0  0  0  0
    2.7450   -5.8360    0.0000 C   0  0  0  0  0  0  0  0  0  0  0  0
    3.4620   -5.4230    0.0000 C   0  0  0  0  0  0  0  0  0  0  0  0
    3.4590   -4.5920    0.0000 C   0  0  0  0  0  0  0  0  0  0  0  0
    2.7440   -4.1830    0.0000 C   0  0  0  0  0  0  0  0  0  0  0  0
    4.1720   -4.1770    0.0000 C   0  0  0  0  0  0  0  0  0  0  0  0
    4.8880   -4.5870    0.0000 C   0  0  0  0  0  0  0  0  0  0  0  0
    4.9760   -5.4060    0.0000 C   0  0  0  0  0  0  0  0  0  0  0  0
    5.6390   -4.2480    0.0000 C   0  0  0  0  0  0  0  0  0  0  0  0
    6.1940   -4.8590    0.0000 C   0  0  0  0  0  0  0  0  0  0  0  0
    5.7830   -5.5740    0.0000 N   0  0  0  0  0  0  0  0  0  0  0  0
    6.1950   -6.2840    0.0000 C   0  0  0  0  0  0  0  0  0  0  0  0
    7.0200   -6.2840    0.0000 C   0  0  0  0  0  0  0  0  0  0  0  0
    7.4310   -5.5680    0.0000 C   0  0  0  0  0  0  0  0  0  0  0  0
    7.0170   -4.8530    0.0000 C   0  0  0  0  0  0  0  0  0  0  0  0
    5.8070   -3.4400    0.0000 C   0  0  0  0  0  0  0  0  0  0  0  0
    4.3650   -5.9600    0.0000 C   0  0  0  0  0  0  0  0  0  0  0  0
    3.5800   -5.7080    0.0000 O   0  0  0  0  0  0  0  0  0  0  0  0
    4.5390   -6.7670    0.0000 N   0  0  0  0  0  0  0  0  0  0  0  0
    2.7410   -3.3580    0.0000 C   0  0  0  0  0  0  0  0  0  0  0  0
    1.3170   -4.1830    0.0000 F   0  0  0  0  0  0  0  0  0  0  0  0
    3.9250   -7.3180    0.0000 C   0  0  0  0  0  0  0  0  0  0  0  0
    4.0960   -8.1220    0.0000 C   0  0  0  0  0  0  0  0  0  0  0  0
    4.8810   -8.3780    0.0000 N   0  0  0  0  0  0  0  0  0  0  0  0
    5.4940   -7.8250    0.0000 C   0  0  2  0  0  0  0  0  0  0  0  0
    5.3230   -7.0150    0.0000 C   0  0  0  0  0  0  0  0  0  0  0  0
    6.5900   -3.1840    0.0000 C   0  0  0  0  0  0  0  0  0  0  0  0
    6.7580   -2.3770    0.0000 C   0  0  0  0  0  0  0  0  0  0  0  0
    6.1420   -1.8270    0.0000 C   0  0  0  0  0  0  0  0  0  0  0  0
    5.3560   -2.0890    0.0000 C   0  0  0  0  0  0  0  0  0  0  0  0
    5.1910   -2.8950    0.0000 C   0  0  0  0  0  0  0  0  0  0  0  0
    6.2790   -8.0800    0.0000 C   0  0  0  0  0  0  0  0  0  0  0  0
    6.8580   -7.4920    0.0000 C   0  0  0  0  0  0  0  0  0  0  0  0
    7.6570   -7.6990    0.0000 N   0  0  0  0  0  0  0  0  0  0  0  0
    6.6390   -6.6960    0.0000 O   0  0  0  0  0  0  0  0  0  0  0  0
    8.2360   -7.1120    0.0000 C   0  0  0  0  0  0  0  0  0  0  0  0
    9.0340   -7.3190    0.0000 C   0  0  0  0  0  0  0  0  0  0  0  0
  6 21  1  0  0  0  0
 11 10  2  0  0  0  0
  1 22  1  0  0  0  0
 20 23  1  0  0  0  0
 10  8  1  0  0  0  0
 11 12  1  0  0  0  0
  2  3  1  0  0  0  0
  5  6  2  0  0  0  0
  6  1  1  0  0  0  0
 20 27  1  0  0  0  0
 23 24  1  0  0  0  0
 24 25  1  0  0  0  0
 25 26  1  0  0  0  0
 26 27  1  0  0  0  0
  1  2  2  0  0  0  0
  5  7  1  0  0  0  0
  3  4  2  0  0  0  0
 11 16  1  0  0  0  0
 12 13  1  0  0  0  0
 13 14  2  0  0  0  0
 14 15  1  0  0  0  0
 15 16  2  0  0  0  0
 17 28  2  0  0  0  0
  7  8  1  0  0  0  0
 28 29  1  0  0  0  0
 10 17  1  0  0  0  0
 29 30  2  0  0  0  0
  8  9  2  0  0  0  0
 30 31  1  0  0  0  0
  9 18  1  0  0  0  0
 31 32  2  0  0  0  0
 32 17  1  0  0  0  0
 26 33  1  6  0  0  0
 18 19  2  0  0  0  0
 33 34  1  0  0  0  0
  4  5  1  0  0  0  0
 34 35  1  0  0  0  0
 18 20  1  0  0  0  0
 34 36  2  0  0  0  0
 35 37  1  0  0  0  0
  9 12  1  0  0  0  0
 37 38  1  0  0  0  0
M  END
>  <ID_NEW>
CPDRE1058

>  <pIC50>
8.0

$$$$

  SciTegic12180813102D

 32 36  0  0  0  0            999 V2000
   -5.7056    1.5292    0.0000 C   0  0
   -5.7068    0.7018    0.0000 C   0  0
   -4.9919    0.2889    0.0000 C   0  0
   -4.9937    1.9419    0.0000 C   0  0
   -4.2824    1.5291    0.0000 C   0  0
   -4.2776    0.7060    0.0000 C   0  0
   -3.4932    0.4561    0.0000 N   0  0
   -3.0132    1.1249    0.0000 C   0  0
   -3.5010    1.7880    0.0000 C   0  0
   -3.2507    2.5741    0.0000 C   0  0
   -2.4447    2.7504    0.0000 N   0  0
   -3.8063    3.1840    0.0000 O   0  0
   -1.8905    2.1373    0.0000 C   0  0
   -1.0877    2.3109    0.0000 C   0  0
   -0.8332    3.0960    0.0000 N   0  0
   -1.3880    3.7079    0.0000 C   0  0
   -2.1973    3.5347    0.0000 C   0  0
   -3.5000   -0.3667    0.0000 C   0  0
   -4.2183   -0.7703    0.0000 C   0  0
   -4.2254   -1.5924    0.0000 C   0  0
   -3.5157   -2.0105    0.0000 C   0  0
   -2.7973   -1.6006    0.0000 C   0  0
   -2.7937   -0.7799    0.0000 C   0  0
   -2.2208    0.9125    0.0000 O   0  0
   -1.4250    0.7000    0.0000 C   0  0
   -1.2135   -0.0973    0.0000 C   0  0
   -0.4185   -0.3099    0.0000 C   0  0
    0.1644    0.2734    0.0000 C   0  0
   -0.0532    1.0723    0.0000 C   0  0
   -0.8478    1.2812    0.0000 C   0  0
   -1.0645    2.0772    0.0000 C   0  0
    0.5276    1.6582    0.0000 F   0  0
  2  3  1  0
 30 31  1  0
  3  6  2  0
  5  4  2  0
  4  1  1  0
  5  6  1  0
  6  7  1  0
  7  8  1  0
  8  9  2  0
  9  5  1  0
  9 10  1  0
 10 11  1  0
 10 12  2  0
 11 13  1  0
 11 17  1  0
 13 14  1  0
 14 15  1  0
 29 32  1  0
 15 16  1  0
 16 17  1  0
  7 18  1  0
 18 19  2  0
 19 20  1  0
 20 21  2  0
 21 22  1  0
 22 23  2  0
 23 18  1  0
  8 24  1  0
 24 25  1  0
 25 26  2  0
 26 27  1  0
 27 28  2  0
 28 29  1  0
  1  2  2  0
 29 30  2  0
 30 25  1  0
M  END
>  <ID_NEW>
CPDRE1059

>  <pIC50>
7.958607314841775

$$$$

  -MTS-   10172316392D 0   0.00000     0.00000     0

 34 38  0  0  1  0  0  0  0  0999 V2000
    6.4200   -4.2240    0.0000 C   0  0  0  0  0  0  0  0  0  0  0  0
    6.6310   -5.0180    0.0000 C   0  0  0  0  0  0  0  0  0  0  0  0
    7.4230   -5.2320    0.0000 C   0  0  0  0  0  0  0  0  0  0  0  0
    8.0050   -4.6510    0.0000 C   0  0  0  0  0  0  0  0  0  0  0  0
    7.7890   -3.8550    0.0000 C   0  0  0  0  0  0  0  0  0  0  0  0
    6.9980   -3.6450    0.0000 C   0  0  0  0  0  0  0  0  0  0  0  0
    4.0830   -1.9870    0.0000 N   0  0  0  0  0  0  0  0  0  0  0  0
    4.2960   -1.1870    0.0000 C   0  0  0  0  0  0  0  0  0  0  0  0
    3.7120   -0.6070    0.0000 C   0  0  1  0  0  0  0  0  0  0  0  0
    2.9130   -0.8200    0.0000 N   0  0  0  0  0  0  0  0  0  0  0  0
    2.7010   -1.6200    0.0000 C   0  0  0  0  0  0  0  0  0  0  0  0
    3.2870   -2.2070    0.0000 C   0  0  0  0  0  0  0  0  0  0  0  0
    4.4190   -3.3600    0.0000 C   0  0  0  0  0  0  0  0  0  0  0  0
    4.4240   -4.7060    0.0000 N   0  0  0  0  0  0  0  0  0  0  0  0
    4.9100   -4.0290    0.0000 C   0  0  0  0  0  0  0  0  0  0  0  0
    4.8450   -5.4250    0.0000 C   0  0  0  0  0  0  0  0  0  0  0  0
    5.6620   -5.4100    0.0000 C   0  0  0  0  0  0  0  0  0  0  0  0
    4.4320   -6.1300    0.0000 C   0  0  0  0  0  0  0  0  0  0  0  0
    6.0820   -6.1270    0.0000 C   0  0  0  0  0  0  0  0  0  0  0  0
    4.8510   -6.8470    0.0000 C   0  0  0  0  0  0  0  0  0  0  0  0
    5.6780   -6.8490    0.0000 C   0  0  0  0  0  0  0  0  0  0  0  0
    4.6720   -2.5750    0.0000 C   0  0  0  0  0  0  0  0  0  0  0  0
    5.4780   -2.4010    0.0000 O   0  0  0  0  0  0  0  0  0  0  0  0
    4.1210    0.1120    0.0000 C   0  0  0  0  0  0  0  0  0  0  0  0
    3.6310   -4.4520    0.0000 C   0  0  0  0  0  0  0  0  0  0  0  0
    3.6300   -3.6190    0.0000 C   0  0  0  0  0  0  0  0  0  0  0  0
    2.9090   -3.2050    0.0000 C   0  0  0  0  0  0  0  0  0  0  0  0
    2.1890   -3.6230    0.0000 N   0  0  0  0  0  0  0  0  0  0  0  0
    2.1940   -4.4600    0.0000 C   0  0  0  0  0  0  0  0  0  0  0  0
    2.9150   -4.8700    0.0000 C   0  0  0  0  0  0  0  0  0  0  0  0
    1.4750   -4.8670    0.0000 O   0  0  0  0  0  0  0  0  0  0  0  0
    5.7040   -3.8080    0.0000 O   0  0  0  0  0  0  0  0  0  0  0  0
    6.7830   -2.8490    0.0000 C   0  0  0  0  0  0  0  0  0  0  0  0
    7.6360   -6.0290    0.0000 F   0  0  0  0  0  0  0  0  0  0  0  0
  3  4  2  0  0  0  0
  4  5  1  0  0  0  0
  2  3  1  0  0  0  0
 20 21  1  0  0  0  0
 13 26  1  0  0  0  0
 13 22  1  0  0  0  0
 22 23  2  0  0  0  0
 22  7  1  0  0  0  0
  9 10  1  0  0  0  0
 10 11  1  0  0  0  0
 11 12  1  0  0  0  0
  7  8  1  0  0  0  0
  7 12  1  0  0  0  0
  8  9  1  0  0  0  0
 25 14  1  0  0  0  0
  9 24  1  1  0  0  0
 14 15  1  0  0  0  0
 15 13  2  0  0  0  0
 25 26  2  0  0  0  0
 16 17  1  0  0  0  0
 26 27  1  0  0  0  0
 16 18  1  0  0  0  0
 27 28  2  0  0  0  0
 16 14  1  0  0  0  0
 28 29  1  0  0  0  0
 17 19  1  0  0  0  0
 29 30  2  0  0  0  0
 30 25  1  0  0  0  0
 18 20  1  0  0  0  0
 29 31  1  0  0  0  0
 19 21  1  0  0  0  0
  5  6  2  0  0  0  0
 15 32  1  0  0  0  0
 32  1  1  0  0  0  0
  6  1  1  0  0  0  0
  6 33  1  0  0  0  0
  1  2  2  0  0  0  0
  3 34  1  0  0  0  0
M  END
>  <ID_NEW>
CPDRE1060

>  <pIC50>
7.958607314841775

$$$$

  SciTegic12180813592D

 43 47  0  0  0  0            999 V2000
   -1.4720    0.3376    0.0000 C   0  0
   -1.0854   -0.3811    0.0000 C   0  0
   -1.0642    1.0445    0.0000 C   0  0
   -2.3084    0.3500    0.0000 O   0  0
   -0.2497   -0.3935    0.0000 C   0  0
   -1.4933   -1.0984    0.0000 C   0  0
   -0.2285    1.0322    0.0000 C   0  0
   -1.4507    1.7736    0.0000 C   0  0
    0.1723    0.3091    0.0000 C   0  0
   -2.6292    2.4458    0.0000 N   0  0
   -1.8292    2.2333    0.0000 C   0  0
   -1.2504    2.8131    0.0000 C   0  0
   -2.2620    3.8293    0.0000 C   0  0
   -2.8504    3.2423    0.0000 C   0  0
   -5.8281    0.9690    0.0000 C   0  0
   -5.8293    0.1374    0.0000 C   0  0
   -5.1104   -0.2754    0.0000 C   0  0
   -5.1122    1.3859    0.0000 N   0  0
   -3.5971    1.2313    0.0000 C   0  0
   -4.3926    0.9726    0.0000 C   0  0
   -4.3900    0.1353    0.0000 C   0  0
   -3.5920   -0.1184    0.0000 N   0  0
   -3.1067    0.5631    0.0000 C   0  0
   -3.1714   -0.8417    0.0000 C   0  0
   -2.3500   -0.8270    0.0000 C   0  0
   -3.5848   -1.5510    0.0000 C   0  0
   -1.9265   -1.5478    0.0000 C   0  0
   -3.1656   -2.2719    0.0000 C   0  0
   -2.3341   -2.2745    0.0000 C   0  0
   -3.3448    2.0208    0.0000 C   0  0
   -3.9031    2.6363    0.0000 O   0  0
   -1.4708    3.6209    0.0000 N   0  0
   -0.5417    2.4042    0.0000 C   0  0
    0.1727    2.8168    0.0000 C   0  0
    0.8873    2.4045    0.0000 N   0  0
    0.1725    3.6418    0.0000 O   0  0
    1.6017    2.8172    0.0000 C   0  0
    2.3162    2.4049    0.0000 C   0  0
    3.0306    2.8176    0.0000 C   0  0
    3.7451    2.4052    0.0000 C   0  0
    4.4595    2.8179    0.0000 N   0  0
    3.7453    1.5802    0.0000 O   0  0
    5.1741    2.4056    0.0000 C   0  0
  1  2  2  0
  1  3  1  0
  1  4  1  0
  2  5  1  0
  2  6  1  0
  3  7  2  0
  3  8  1  0
  7  9  1  0
  5  9  2  0
 13 14  1  0
 21 22  1  0
 22 23  1  0
 23 19  2  0
 24 25  2  0
 24 26  1  0
 24 22  1  0
 25 27  1  0
 26 28  2  0
 27 29  2  0
 28 29  1  0
 18 15  2  0
 20 21  2  0
 16 17  2  0
 17 21  1  0
 15 16  1  0
 20 18  1  0
 19 20  1  0
 19 30  1  0
 23  4  1  0
 30 31  2  0
 30 10  1  0
 10 11  1  0
 12 32  1  0
 13 32  1  0
 10 14  1  0
 11 12  1  0
 12 33  1  0
 33 34  1  0
 34 35  1  0
 34 36  2  0
 35 37  1  0
 37 38  1  0
 38 39  1  0
 39 40  1  0
 40 41  1  0
 40 42  2  0
 41 43  1  0
M  END
>  <ID_NEW>
CPDRE1061

>  <pIC50>
7.958607314841775

$$$$

  -MTS-   10172316392D 0   0.00000     0.00000     0

 43 47  0  0  1  0  0  0  0  0999 V2000
    6.3570   -2.8670    0.0000 C   0  0  0  0  0  0  0  0  0  0  0  0
    6.7440   -3.5850    0.0000 C   0  0  0  0  0  0  0  0  0  0  0  0
    6.7650   -2.1600    0.0000 C   0  0  0  0  0  0  0  0  0  0  0  0
    5.5210   -2.8540    0.0000 O   0  0  0  0  0  0  0  0  0  0  0  0
    7.5790   -3.5980    0.0000 C   0  0  0  0  0  0  0  0  0  0  0  0
    6.3360   -4.3030    0.0000 C   0  0  0  0  0  0  0  0  0  0  0  0
    7.6010   -2.1720    0.0000 C   0  0  0  0  0  0  0  0  0  0  0  0
    6.3780   -1.4310    0.0000 C   0  0  0  0  0  0  0  0  0  0  0  0
    8.0010   -2.8950    0.0000 C   0  0  0  0  0  0  0  0  0  0  0  0
    5.2000   -0.7580    0.0000 N   0  0  0  0  0  0  0  0  0  0  0  0
    6.0000   -0.9710    0.0000 C   0  0  0  0  0  0  0  0  0  0  0  0
    6.5790   -0.3910    0.0000 C   0  0  2  0  0  0  0  0  0  0  0  0
    5.5670    0.6250    0.0000 C   0  0  0  0  0  0  0  0  0  0  0  0
    4.9790    0.0380    0.0000 C   0  0  0  0  0  0  0  0  0  0  0  0
    2.0010   -2.2350    0.0000 C   0  0  0  0  0  0  0  0  0  0  0  0
    2.0000   -3.0670    0.0000 C   0  0  0  0  0  0  0  0  0  0  0  0
    2.7190   -3.4800    0.0000 C   0  0  0  0  0  0  0  0  0  0  0  0
    2.7170   -1.8180    0.0000 N   0  0  0  0  0  0  0  0  0  0  0  0
    4.2320   -1.9730    0.0000 C   0  0  0  0  0  0  0  0  0  0  0  0
    3.4370   -2.2320    0.0000 C   0  0  0  0  0  0  0  0  0  0  0  0
    3.4390   -3.0690    0.0000 C   0  0  0  0  0  0  0  0  0  0  0  0
    4.2370   -3.3230    0.0000 N   0  0  0  0  0  0  0  0  0  0  0  0
    4.7220   -2.6410    0.0000 C   0  0  0  0  0  0  0  0  0  0  0  0
    4.6580   -4.0460    0.0000 C   0  0  0  0  0  0  0  0  0  0  0  0
    5.4790   -4.0310    0.0000 C   0  0  0  0  0  0  0  0  0  0  0  0
    4.2440   -4.7550    0.0000 C   0  0  0  0  0  0  0  0  0  0  0  0
    5.9030   -4.7520    0.0000 C   0  0  0  0  0  0  0  0  0  0  0  0
    4.6640   -5.4760    0.0000 C   0  0  0  0  0  0  0  0  0  0  0  0
    5.4950   -5.4790    0.0000 C   0  0  0  0  0  0  0  0  0  0  0  0
    4.4840   -1.1830    0.0000 C   0  0  0  0  0  0  0  0  0  0  0  0
    3.9260   -0.5680    0.0000 O   0  0  0  0  0  0  0  0  0  0  0  0
    6.3580    0.4170    0.0000 N   0  0  0  0  0  0  0  0  0  0  0  0
    7.2870   -0.8000    0.0000 C   0  0  0  0  0  0  0  0  0  0  0  0
    8.0020   -0.3870    0.0000 C   0  0  0  0  0  0  0  0  0  0  0  0
    8.7160   -0.8000    0.0000 N   0  0  0  0  0  0  0  0  0  0  0  0
    8.0020    0.4380    0.0000 O   0  0  0  0  0  0  0  0  0  0  0  0
    9.4310   -0.3870    0.0000 C   0  0  0  0  0  0  0  0  0  0  0  0
   10.1450   -0.7990    0.0000 C   0  0  0  0  0  0  0  0  0  0  0  0
   10.8600   -0.3870    0.0000 C   0  0  0  0  0  0  0  0  0  0  0  0
    9.5540   -1.3790    0.0000 C   0  0  0  0  0  0  0  0  0  0  0  0
   11.5740   -0.7990    0.0000 N   0  0  0  0  0  0  0  0  0  0  0  0
   10.8600    0.4380    0.0000 O   0  0  0  0  0  0  0  0  0  0  0  0
   10.7250   -1.3790    0.0000 C   0  0  0  0  0  0  0  0  0  0  0  0
 22 23  1  0  0  0  0
 23 19  2  0  0  0  0
 24 25  2  0  0  0  0
 24 26  1  0  0  0  0
 24 22  1  0  0  0  0
 25 27  1  0  0  0  0
 26 28  2  0  0  0  0
 27 29  2  0  0  0  0
 28 29  1  0  0  0  0
 18 15  2  0  0  0  0
 20 21  2  0  0  0  0
 16 17  2  0  0  0  0
 17 21  1  0  0  0  0
 15 16  1  0  0  0  0
 20 18  1  0  0  0  0
 19 20  1  0  0  0  0
 19 30  1  0  0  0  0
 23  4  1  0  0  0  0
 30 31  2  0  0  0  0
 30 10  1  0  0  0  0
 10 11  1  0  0  0  0
 12 32  1  0  0  0  0
 13 32  1  0  0  0  0
 10 14  1  0  0  0  0
 11 12  1  0  0  0  0
 12 33  1  6  0  0  0
 33 34  1  0  0  0  0
 34 35  1  0  0  0  0
 34 36  2  0  0  0  0
 35 37  1  0  0  0  0
 37 38  1  0  0  0  0
 38 39  1  0  0  0  0
 38 40  1  0  0  0  0
 39 41  1  0  0  0  0
 39 42  2  0  0  0  0
 38 43  1  0  0  0  0
  1  2  2  0  0  0  0
  1  3  1  0  0  0  0
  1  4  1  0  0  0  0
  2  5  1  0  0  0  0
  2  6  1  0  0  0  0
  3  7  2  0  0  0  0
  3  8  1  0  0  0  0
  7  9  1  0  0  0  0
  5  9  2  0  0  0  0
 13 14  1  0  0  0  0
 21 22  1  0  0  0  0
M  END
>  <ID_NEW>
CPDRE1062

>  <pIC50>
7.958607314841775

$$$$

  SciTegic12180813462D

 34 38  0  0  0  0            999 V2000
   -4.2764    0.3876    0.0000 C   0  0
   -4.2776   -0.4398    0.0000 C   0  0
   -3.5628   -0.8527    0.0000 C   0  0
   -3.5646    0.8003    0.0000 C   0  0
   -2.8492    0.3912    0.0000 C   0  0
   -2.8444   -0.4352    0.0000 C   0  0
   -2.0569   -0.6861    0.0000 N   0  0
   -1.5749   -0.0146    0.0000 C   0  0
   -2.0647    0.6511    0.0000 C   0  0
   -1.7974   -1.4692    0.0000 C   0  0
   -2.3489   -2.0808    0.0000 C   0  0
   -2.0900   -2.8633    0.0000 C   0  0
   -1.2812   -3.0307    0.0000 C   0  0
   -0.7319   -2.4095    0.0000 C   0  0
   -0.9938   -1.6294    0.0000 C   0  0
   -1.8144    1.4372    0.0000 C   0  0
   -1.0084    1.6135    0.0000 O   0  0
   -2.3700    2.0471    0.0000 N   0  0
   -2.1176    2.8301    0.0000 C   0  0
   -2.6693    3.4386    0.0000 C   0  0
   -3.4765    3.2664    0.0000 N   0  0
   -3.7290    2.4800    0.0000 C   0  0
   -3.1743    1.8658    0.0000 C   0  0
   -0.7499   -0.0097    0.0000 C   0  0
   -0.0375   -0.4208    0.0000 C   0  0
   -0.0400   -1.2444    0.0000 C   0  0
    0.6715   -1.6553    0.0000 C   0  0
    1.3847   -1.2438    0.0000 C   0  0
    1.3818   -0.4171    0.0000 C   0  0
    0.6697   -0.0098    0.0000 C   0  0
    0.6668    0.8152    0.0000 C   0  0
    2.0947   -0.0019    0.0000 F   0  0
   -4.9924   -0.8517    0.0000 O   0  0
   -5.7065   -0.4386    0.0000 C   0  0
 14 15  2  0
 15 10  1  0
  9 16  1  0
 16 17  2  0
 16 18  1  0
 18 19  1  0
 18 23  1  0
 19 20  1  0
 20 21  1  0
 21 22  1  0
 22 23  1  0
  8 24  1  0
 24 25  1  0
 25 26  2  0
 26 27  1  0
 27 28  2  0
 28 29  1  0
 29 30  2  0
 30 25  1  0
 30 31  1  0
 29 32  1  0
  2 33  1  0
 33 34  1  0
  1  2  2  0
  2  3  1  0
  3  6  2  0
  5  4  2  0
  4  1  1  0
  5  6  1  0
  6  7  1  0
  7  8  1  0
  8  9  2  0
  9  5  1  0
  7 10  1  0
 10 11  2  0
 11 12  1  0
 12 13  2  0
 13 14  1  0
M  END
>  <ID_NEW>
CPDRE1063

>  <pIC50>
7.920818753952375

$$$$

  SciTegic12180813472D

 32 36  0  0  0  0            999 V2000
    4.8833   -2.6167    0.0000 N   0  0
    5.2917   -1.9000    0.0000 C   0  0
    4.8775   -1.1920    0.0000 C   0  0
    4.0533   -1.1944    0.0000 N   0  0
    3.6449   -1.9111    0.0000 C   0  0
    4.0608   -2.6253    0.0000 C   0  0
    4.2978   -6.0127    0.0000 C   0  0
    3.5821   -6.4192    0.0000 C   0  0
    3.5773   -7.2403    0.0000 C   0  0
    4.2873   -7.6560    0.0000 C   0  0
    5.0038   -7.2445    0.0000 C   0  0
    5.0051   -6.4247    0.0000 C   0  0
    6.0919   -5.8341    0.0000 C   0  0
    5.6752   -6.5445    0.0000 C   0  0
    6.0819   -7.2584    0.0000 C   0  0
    6.9053   -7.2633    0.0000 C   0  0
    7.3202   -6.5482    0.0000 C   0  0
    6.9111   -5.8371    0.0000 C   0  0
    3.6318   -4.7078    0.0000 C   0  0
    3.8449   -3.9098    0.0000 C   0  0
    3.2611   -3.3283    0.0000 N   0  0
    2.4639   -3.5435    0.0000 C   0  0
    2.2538   -4.3455    0.0000 C   0  0
    2.8392   -4.9236    0.0000 C   0  0
    4.3042   -5.1916    0.0000 N   0  0
    4.9735   -4.7092    0.0000 C   0  0
    4.7167   -3.9209    0.0000 C   0  0
    5.6833   -5.1208    0.0000 C   0  0
    5.3000   -3.3333    0.0000 C   0  0
    6.0125   -3.7458    0.0000 O   0  0
    7.1208   -5.0333    0.0000 C   0  0
    8.1125   -6.7583    0.0000 F   0  0
 20 21  1  0
  9 10  2  0
 21 22  2  0
  1  6  1  0
 22 23  1  0
 10 11  1  0
 23 24  2  0
 24 19  1  0
  2  3  1  0
 11 12  2  0
 26 27  2  0
 12  7  1  0
 25 26  1  0
 27 20  1  0
 19 25  1  0
 25  7  1  0
  3  4  1  0
 26 28  1  0
 28 13  1  0
  4  5  1  0
 27 29  1  0
 13 14  2  0
 29 30  2  0
 29  1  1  0
  5  6  1  0
 18 31  1  0
 14 15  1  0
 17 32  1  0
 15 16  2  0
  1  2  1  0
 16 17  1  0
  7  8  2  0
 17 18  2  0
 18 13  1  0
  8  9  1  0
 19 20  2  0
M  END
>  <ID_NEW>
CPDRE1064

>  <pIC50>
7.920818753952375

$$$$

  SciTegic12180813512D

 32 36  0  0  0  0            999 V2000
   10.5132   -4.8872    0.0000 C   0  0
   11.2236   -5.2998    0.0000 C   0  0
   11.9340   -4.8910    0.0000 C   0  0
   11.9352   -4.0697    0.0000 C   0  0
   11.2202   -3.6590    0.0000 C   0  0
   10.5127   -4.0702    0.0000 C   0  0
    6.9766   -5.2751    0.0000 C   0  0
    7.3307   -3.6620    0.0000 N   0  0
    6.5423   -3.9107    0.0000 C   0  0
    6.3653   -4.7172    0.0000 C   0  0
    7.7608   -5.0264    0.0000 C   0  0
    7.9379   -4.2200    0.0000 C   0  0
    8.7599   -4.1410    0.0000 C   0  0
    9.0889   -4.8950    0.0000 C   0  0
    8.4709   -5.4445    0.0000 N   0  0
    8.5540   -6.2666    0.0000 C   0  0
    8.9107   -3.3283    0.0000 C   0  0
    8.2814   -2.7930    0.0000 N   0  0
    9.6865   -3.0508    0.0000 O   0  0
    9.3030   -6.6078    0.0000 C   0  0
    9.3861   -7.4258    0.0000 C   0  0
    8.7118   -7.9066    0.0000 C   0  0
    7.9628   -7.5654    0.0000 C   0  0
    7.8797   -6.7433    0.0000 C   0  0
    8.4321   -1.9803    0.0000 C   0  0
    7.8028   -1.4450    0.0000 C   0  0
    7.0270   -1.7224    0.0000 N   0  0
    6.8762   -2.5351    0.0000 C   0  0
    7.5055   -3.0704    0.0000 C   0  0
    9.8000   -5.3042    0.0000 O   0  0
    9.7958   -3.6542    0.0000 C   0  0
   11.2167   -6.1208    0.0000 C   0  0
  9  8  2  0
  8 12  1  0
  9 10  1  0
 11 12  2  0
 12 13  1  0
 13 14  2  0
 14 15  1  0
 14 30  1  0
 30  1  1  0
  4  5  1  0
  6 31  1  0
  2  3  1  0
  2 32  1  0
  5  6  2  0
  6  1  1  0
  1  2  2  0
  3  4  2  0
 15 11  1  0
 15 16  1  0
 13 17  1  0
 17 18  1  0
 17 19  2  0
 16 20  2  0
 20 21  1  0
 21 22  2  0
 22 23  1  0
 23 24  2  0
 24 16  1  0
 18 25  1  0
 18 29  1  0
 25 26  1  0
 26 27  1  0
 27 28  1  0
 28 29  1  0
 11  7  1  0
  7 10  2  0
M  END
>  <ID_NEW>
CPDRE1065

>  <pIC50>
7.886056647693162

$$$$

  SciTegic12180813532D

 31 35  0  0  0  0            999 V2000
   -2.3972   -2.8959    0.0000 C   0  0
   -2.3984   -3.7232    0.0000 C   0  0
   -1.6835   -4.1361    0.0000 C   0  0
   -1.6853   -2.4831    0.0000 C   0  0
   -0.1786   -2.6336    0.0000 C   0  0
   -0.9700   -2.8922    0.0000 C   0  0
   -0.9674   -3.7254    0.0000 C   0  0
   -0.1736   -3.9791    0.0000 N   0  0
    0.3118   -3.3018    0.0000 C   0  0
    0.0737   -1.8482    0.0000 C   0  0
    0.8801   -1.6740    0.0000 N   0  0
   -0.4803   -1.2369    0.0000 O   0  0
    1.1368   -3.2971    0.0000 O   0  0
    0.0858   -4.7622    0.0000 C   0  0
   -0.3903   -5.4326    0.0000 C   0  0
    0.0985   -6.0973    0.0000 C   0  0
    0.8817   -5.8379    0.0000 C   0  0
    0.8768   -5.0129    0.0000 C   0  0
    1.4334   -2.2888    0.0000 C   0  0
    2.2366   -2.1173    0.0000 C   0  0
    2.4932   -1.3328    0.0000 N   0  0
    1.9399   -0.7195    0.0000 C   0  0
    1.1302   -0.8907    0.0000 C   0  0
    1.8459   -3.7083    0.0000 C   0  0
    1.8415   -4.5291    0.0000 C   0  0
    2.5496   -4.9403    0.0000 C   0  0
    3.2613   -4.5318    0.0000 C   0  0
    3.2603   -3.7079    0.0000 C   0  0
    2.5516   -3.3004    0.0000 C   0  0
    2.3334   -2.5000    0.0000 C   0  0
    2.5475   -5.7653    0.0000 F   0  0
 17 18  1  0
 18 14  1  0
 11 19  1  0
  1  2  2  0
  2  3  1  0
  3  7  2  0
  6  4  2  0
 11 23  1  0
 19 20  1  0
 20 21  1  0
 21 22  1  0
 22 23  1  0
  4  1  1  0
  6  7  1  0
  5  6  1  0
  7  8  1  0
  8  9  1  0
  9  5  2  0
  5 10  1  0
 13 24  1  0
 10 11  1  0
 24 25  2  0
 10 12  2  0
 25 26  1  0
  9 13  1  0
 26 27  2  0
  8 14  1  0
 27 28  1  0
 14 15  1  0
 28 29  2  0
 29 24  1  0
 15 16  1  0
 16 17  1  0
 29 30  1  0
 26 31  1  0
M  END
>  <ID_NEW>
CPDRE1066

>  <pIC50>
7.886056647693162

$$$$

  -MTS-   10172316392D 0   0.00000     0.00000     0

 45 49  0  0  1  0  0  0  0  0999 V2000
    6.5490   -6.1790    0.0000 C   0  0  0  0  0  0  0  0  0  0  0  0
    6.9470   -5.4940    0.0000 C   0  0  0  0  0  0  0  0  0  0  0  0
    6.5530   -4.8130    0.0000 C   0  0  0  0  0  0  0  0  0  0  0  0
    5.7600   -6.1780    0.0000 N   0  0  0  0  0  0  0  0  0  0  0  0
    5.3720   -5.4950    0.0000 N   0  0  0  0  0  0  0  0  0  0  0  0
    5.7620   -4.8060    0.0000 C   0  0  0  0  0  0  0  0  0  0  0  0
    5.2370   -4.2270    0.0000 C   0  0  0  0  0  0  0  0  0  0  0  0
    4.5160   -4.5460    0.0000 C   0  0  0  0  0  0  0  0  0  0  0  0
    4.6050   -5.3290    0.0000 C   0  0  0  0  0  0  0  0  0  0  0  0
    3.8310   -4.1580    0.0000 C   0  0  0  0  0  0  0  0  0  0  0  0
    7.7400   -5.4910    0.0000 C   0  0  0  0  0  0  0  0  0  0  0  0
    8.1340   -4.8090    0.0000 O   0  0  0  0  0  0  0  0  0  0  0  0
    8.1370   -6.1780    0.0000 N   0  0  0  0  0  0  0  0  0  0  0  0
    5.4020   -3.4620    0.0000 C   0  0  0  0  0  0  0  0  0  0  0  0
    6.1440   -3.2250    0.0000 C   0  0  0  0  0  0  0  0  0  0  0  0
    6.3060   -2.4590    0.0000 C   0  0  0  0  0  0  0  0  0  0  0  0
    5.7260   -1.9330    0.0000 C   0  0  0  0  0  0  0  0  0  0  0  0
    4.9790   -2.1800    0.0000 C   0  0  0  0  0  0  0  0  0  0  0  0
    4.8200   -2.9460    0.0000 C   0  0  0  0  0  0  0  0  0  0  0  0
    3.1200   -4.5770    0.0000 C   0  0  0  0  0  0  0  0  0  0  0  0
    2.4040   -4.1700    0.0000 C   0  0  0  0  0  0  0  0  0  0  0  0
    1.6940   -4.5880    0.0000 C   0  0  0  0  0  0  0  0  0  0  0  0
    1.7000   -5.4140    0.0000 C   0  0  0  0  0  0  0  0  0  0  0  0
    2.4230   -5.8200    0.0000 C   0  0  0  0  0  0  0  0  0  0  0  0
    3.1310   -5.4000    0.0000 C   0  0  0  0  0  0  0  0  0  0  0  0
    2.3980   -3.3450    0.0000 C   0  0  0  0  0  0  0  0  0  0  0  0
    0.9760   -4.1820    0.0000 F   0  0  0  0  0  0  0  0  0  0  0  0
    4.0170   -5.9120    0.0000 C   0  0  0  0  0  0  0  0  0  0  0  0
    3.2210   -5.6950    0.0000 O   0  0  0  0  0  0  0  0  0  0  0  0
    4.2270   -6.7100    0.0000 N   0  0  0  0  0  0  0  0  0  0  0  0
    3.6390   -7.2870    0.0000 C   0  0  0  0  0  0  0  0  0  0  0  0
    3.8460   -8.0820    0.0000 C   0  0  0  0  0  0  0  0  0  0  0  0
    4.6410   -8.3040    0.0000 N   0  0  0  0  0  0  0  0  0  0  0  0
    5.2290   -7.7240    0.0000 C   0  0  2  0  0  0  0  0  0  0  0  0
    5.0220   -6.9220    0.0000 C   0  0  0  0  0  0  0  0  0  0  0  0
    6.0240   -7.9430    0.0000 C   0  0  0  0  0  0  0  0  0  0  0  0
    6.6120   -7.3650    0.0000 C   0  0  0  0  0  0  0  0  0  0  0  0
    7.4070   -7.5840    0.0000 N   0  0  0  0  0  0  0  0  0  0  0  0
    6.4050   -6.5660    0.0000 O   0  0  0  0  0  0  0  0  0  0  0  0
    7.6150   -8.3830    0.0000 C   0  0  0  0  0  0  0  0  0  0  0  0
    8.4080   -8.5920    0.0000 C   0  0  0  0  0  0  0  0  0  0  0  0
    7.7250   -6.8930    0.0000 C   0  0  0  0  0  0  0  0  0  0  0  0
    8.9620   -6.1780    0.0000 C   0  0  0  0  0  0  0  0  0  0  0  0
    9.3750   -6.8920    0.0000 C   0  0  0  0  0  0  0  0  0  0  0  0
    8.1370   -7.6070    0.0000 C   0  0  0  0  0  0  0  0  0  0  0  0
 17 18  1  0  0  0  0
 23 24  1  0  0  0  0
  8 10  1  0  0  0  0
 24 25  2  0  0  0  0
 25 20  1  0  0  0  0
 18 19  2  0  0  0  0
 21 26  1  0  0  0  0
 19 14  1  0  0  0  0
 22 27  1  0  0  0  0
  5  6  1  0  0  0  0
  9 28  1  0  0  0  0
  2 11  1  0  0  0  0
 28 29  2  0  0  0  0
 11 12  2  0  0  0  0
 28 30  1  0  0  0  0
 30 31  1  0  0  0  0
  1  2  1  0  0  0  0
  1  4  2  0  0  0  0
 11 13  1  0  0  0  0
  2  3  2  0  0  0  0
 30 35  1  0  0  0  0
 31 32  1  0  0  0  0
 32 33  1  0  0  0  0
 33 34  1  0  0  0  0
 34 35  1  0  0  0  0
  3  6  1  0  0  0  0
 34 36  1  6  0  0  0
 36 37  1  0  0  0  0
  6  7  2  0  0  0  0
 37 38  1  0  0  0  0
  7 14  1  0  0  0  0
 37 39  2  0  0  0  0
  7  8  1  0  0  0  0
 38 40  1  0  0  0  0
 14 15  2  0  0  0  0
 40 41  1  0  0  0  0
  8  9  2  0  0  0  0
 15 16  1  0  0  0  0
 10 20  1  0  0  0  0
  9  5  1  0  0  0  0
 20 21  2  0  0  0  0
 16 17  2  0  0  0  0
 13 42  1  0  0  0  0
 21 22  1  0  0  0  0
 13 43  1  0  0  0  0
  5  4  1  0  0  0  0
 43 44  1  0  0  0  0
 22 23  2  0  0  0  0
 42 45  1  0  0  0  0
M  END
>  <ID_NEW>
CPDRE1067

>  <pIC50>
7.886056647693162

$$$$

  SciTegic12180813522D

 33 37  0  0  0  0            999 V2000
   -4.6214    3.4312    0.0000 N   0  0
   -4.6397    2.6054    0.0000 C   0  0
   -3.8875    3.8326    0.0000 C   0  0
   -3.9328    2.1724    0.0000 C   0  0
   -3.1793    3.4043    0.0000 C   0  0
   -3.1990    2.5738    0.0000 N   0  0
   -5.1157    0.9148    0.0000 C   0  0
   -5.1169    0.0874    0.0000 C   0  0
   -4.4021   -0.3254    0.0000 C   0  0
   -4.4039    1.3276    0.0000 N   0  0
   -2.8972    1.1771    0.0000 C   0  0
   -3.6885    0.9184    0.0000 C   0  0
   -3.6859    0.0853    0.0000 C   0  0
   -2.8921   -0.1684    0.0000 N   0  0
   -2.4068    0.5089    0.0000 C   0  0
   -2.4715   -0.8875    0.0000 C   0  0
   -1.6542   -0.8728    0.0000 C   0  0
   -2.8849   -1.5927    0.0000 C   0  0
   -1.2349   -1.5895    0.0000 C   0  0
   -2.4657   -2.3094    0.0000 C   0  0
   -1.6383   -2.3120    0.0000 C   0  0
   -2.6449    1.9625    0.0000 C   0  0
   -1.8385    2.1367    0.0000 O   0  0
   -1.6126    0.3000    0.0000 O   0  0
   -0.9001    0.7167    0.0000 C   0  0
   -0.1834    0.3050    0.0000 C   0  0
    0.5286    0.7210    0.0000 C   0  0
    0.5244    1.5472    0.0000 C   0  0
   -0.1977    1.9558    0.0000 C   0  0
   -0.9067    1.5374    0.0000 C   0  0
   -0.1804   -0.5200    0.0000 C   0  0
   -5.8333   -0.3208    0.0000 C   0  0
   -0.2000    2.5292    0.0000 F   0  0
  2  4  1  0
  3  5  1  0
  4  6  1  0
  5  6  1  0
  1  2  1  0
  1  3  1  0
 13 14  1  0
 14 15  1  0
 15 11  2  0
 16 17  1  0
 16 18  2  0
 16 14  1  0
 17 19  2  0
 18 20  1  0
 19 21  1  0
 20 21  2  0
 10  7  2  0
 12 13  2  0
  8  9  2  0
  9 13  1  0
  7  8  1  0
 12 10  1  0
 11 12  1  0
 11 22  1  0
 22 23  2  0
 15 24  1  0
 24 25  1  0
 25 26  2  0
 26 27  1  0
 27 28  2  0
 28 29  1  0
 29 30  2  0
 30 25  1  0
 26 31  1  0
 29 33  1  0
 22  6  1  0
  8 32  1  0
M  END
>  <ID_NEW>
CPDRE1068

>  <pIC50>
7.853871964321761

$$$$

  SciTegic12180813592D

 40 44  0  0  0  0            999 V2000
   -1.4720    0.3376    0.0000 C   0  0
   -1.0854   -0.3811    0.0000 C   0  0
   -1.0642    1.0445    0.0000 C   0  0
   -2.3084    0.3500    0.0000 O   0  0
   -0.2497   -0.3935    0.0000 C   0  0
   -1.4933   -1.0984    0.0000 C   0  0
   -0.2285    1.0322    0.0000 C   0  0
   -1.4507    1.7736    0.0000 C   0  0
    0.1723    0.3091    0.0000 C   0  0
   -2.6292    2.4458    0.0000 N   0  0
   -1.8292    2.2333    0.0000 C   0  0
   -1.2504    2.8131    0.0000 C   0  0
   -2.2620    3.8293    0.0000 C   0  0
   -2.8504    3.2423    0.0000 C   0  0
   -5.8281    0.9690    0.0000 C   0  0
   -5.8293    0.1374    0.0000 C   0  0
   -5.1104   -0.2754    0.0000 C   0  0
   -5.1122    1.3859    0.0000 N   0  0
   -3.5971    1.2313    0.0000 C   0  0
   -4.3926    0.9726    0.0000 C   0  0
   -4.3900    0.1353    0.0000 C   0  0
   -3.5920   -0.1184    0.0000 N   0  0
   -3.1067    0.5631    0.0000 C   0  0
   -3.1714   -0.8417    0.0000 C   0  0
   -2.3500   -0.8270    0.0000 C   0  0
   -3.5848   -1.5510    0.0000 C   0  0
   -1.9265   -1.5478    0.0000 C   0  0
   -3.1656   -2.2719    0.0000 C   0  0
   -2.3341   -2.2745    0.0000 C   0  0
   -3.3448    2.0208    0.0000 C   0  0
   -3.9031    2.6363    0.0000 O   0  0
   -1.4708    3.6209    0.0000 N   0  0
   -0.5417    2.4042    0.0000 C   0  0
    0.1727    2.8168    0.0000 C   0  0
    0.8873    2.4045    0.0000 N   0  0
    0.1725    3.6418    0.0000 O   0  0
    1.6017    2.8172    0.0000 C   0  0
    2.3162    2.4049    0.0000 C   0  0
    3.0306    2.8176    0.0000 C   0  0
    3.7452    2.4053    0.0000 C   0  0
  1  2  2  0
  1  3  1  0
  1  4  1  0
  2  5  1  0
  2  6  1  0
  3  7  2  0
  3  8  1  0
  7  9  1  0
  5  9  2  0
 13 14  1  0
 21 22  1  0
 22 23  1  0
 23 19  2  0
 24 25  2  0
 24 26  1  0
 24 22  1  0
 25 27  1  0
 26 28  2  0
 27 29  2  0
 28 29  1  0
 18 15  2  0
 20 21  2  0
 16 17  2  0
 17 21  1  0
 15 16  1  0
 20 18  1  0
 19 20  1  0
 19 30  1  0
 23  4  1  0
 30 31  2  0
 30 10  1  0
 10 11  1  0
 12 32  1  0
 13 32  1  0
 10 14  1  0
 11 12  1  0
 12 33  1  0
 33 34  1  0
 34 35  1  0
 34 36  2  0
 35 37  1  0
 37 38  1  0
 38 39  1  0
 39 40  1  0
M  END
>  <ID_NEW>
CPDRE1069

>  <pIC50>
7.853871964321761

$$$$

  SciTegic12180813512D

 32 36  0  0  0  0            999 V2000
    1.8311   -3.8377    0.0000 C   0  0
    1.1154   -4.2442    0.0000 C   0  0
    1.1106   -5.0653    0.0000 C   0  0
    1.8207   -5.4810    0.0000 C   0  0
    2.5371   -5.0695    0.0000 C   0  0
    2.5384   -4.2497    0.0000 C   0  0
    3.7086   -3.4591    0.0000 C   0  0
    3.2919   -4.1695    0.0000 C   0  0
    3.6986   -4.8834    0.0000 C   0  0
    4.5220   -4.8883    0.0000 C   0  0
    4.9369   -4.1732    0.0000 C   0  0
    4.5277   -3.4621    0.0000 C   0  0
    3.6583   -1.1583    0.0000 N   0  0
    4.0667   -1.8708    0.0000 C   0  0
    4.8833   -1.8734    0.0000 C   0  0
    5.2979   -1.1652    0.0000 N   0  0
    4.8895   -0.4527    0.0000 C   0  0
    4.0667   -0.4484    0.0000 C   0  0
    1.1651   -2.5328    0.0000 C   0  0
    1.3782   -1.7348    0.0000 C   0  0
    0.7944   -1.1533    0.0000 N   0  0
   -0.0028   -1.3685    0.0000 C   0  0
   -0.2129   -2.1705    0.0000 C   0  0
    0.3725   -2.7486    0.0000 C   0  0
    1.8375   -3.0166    0.0000 N   0  0
    2.5068   -2.5342    0.0000 C   0  0
    2.2500   -1.7459    0.0000 C   0  0
    3.3000   -2.7458    0.0000 C   0  0
    2.8333   -1.1583    0.0000 C   0  0
    2.4167   -0.4417    0.0000 O   0  0
    4.9333   -2.7417    0.0000 Cl  0  0
    2.5750   -3.7542    0.0000 Cl  0  0
  2  3  1  0
 20 21  1  0
 10 11  1  0
 21 22  2  0
  5  6  2  0
 22 23  1  0
 11 12  2  0
 23 24  2  0
 24 19  1  0
 12  7  1  0
 13 14  1  0
 26 27  2  0
  6  1  1  0
 25 26  1  0
 27 20  1  0
 19 25  1  0
 25  1  1  0
  1  2  2  0
 26 28  1  0
 28  7  1  0
  3  4  2  0
 27 29  1  0
  7  8  2  0
 29 30  2  0
 29 13  1  0
  8  9  1  0
 13 18  1  0
 14 15  1  0
 15 16  1  0
 16 17  1  0
 17 18  1  0
  4  5  1  0
 12 31  1  0
  9 10  2  0
  8 32  1  0
 19 20  2  0
M  END
>  <ID_NEW>
CPDRE1070

>  <pIC50>
7.853871964321761

$$$$

  SciTegic12180813542D

 31 35  0  0  0  0            999 V2000
    1.1986   -3.3959    0.0000 C   0  0
    1.1974   -4.2232    0.0000 C   0  0
    1.9123   -4.6361    0.0000 C   0  0
    1.9105   -2.9831    0.0000 N   0  0
    3.4172   -3.1336    0.0000 C   0  0
    2.6258   -3.3922    0.0000 C   0  0
    2.6284   -4.2254    0.0000 C   0  0
    3.4222   -4.4791    0.0000 N   0  0
    3.9076   -3.8018    0.0000 C   0  0
    3.6695   -2.3482    0.0000 C   0  0
    4.4759   -2.1740    0.0000 N   0  0
    3.1155   -1.7369    0.0000 O   0  0
    4.7326   -3.7971    0.0000 O   0  0
    3.6816   -5.2622    0.0000 C   0  0
    3.2055   -5.9326    0.0000 C   0  0
    3.6943   -6.5973    0.0000 C   0  0
    4.4775   -6.3379    0.0000 C   0  0
    4.4726   -5.5129    0.0000 C   0  0
    5.0292   -2.7888    0.0000 C   0  0
    5.8324   -2.6173    0.0000 C   0  0
    6.0890   -1.8328    0.0000 N   0  0
    5.5357   -1.2195    0.0000 C   0  0
    4.7260   -1.3907    0.0000 C   0  0
    5.4417   -4.2083    0.0000 C   0  0
    5.4373   -5.0291    0.0000 C   0  0
    6.1454   -5.4403    0.0000 C   0  0
    6.8571   -5.0318    0.0000 C   0  0
    6.8561   -4.2079    0.0000 C   0  0
    6.1474   -3.8004    0.0000 C   0  0
    4.7212   -5.4388    0.0000 C   0  0
    5.9292   -3.0000    0.0000 C   0  0
 17 18  1  0
 18 14  1  0
 11 19  1  0
  1  2  2  0
  2  3  1  0
  3  7  2  0
  6  4  2  0
 11 23  1  0
 19 20  1  0
 20 21  1  0
 21 22  1  0
 22 23  1  0
  4  1  1  0
  6  7  1  0
  5  6  1  0
  7  8  1  0
  8  9  1  0
  9  5  2  0
  5 10  1  0
 13 24  1  0
 10 11  1  0
 24 25  2  0
 10 12  2  0
 25 26  1  0
  9 13  1  0
 26 27  2  0
  8 14  1  0
 27 28  1  0
 14 15  1  0
 28 29  2  0
 29 24  1  0
 15 16  1  0
 25 30  1  0
 16 17  1  0
 29 31  1  0
M  END
>  <ID_NEW>
CPDRE1071

>  <pIC50>
7.853871964321761

$$$$

  -MTS-   10172316392D 0   0.00000     0.00000     0

 40 44  0  0  1  0  0  0  0  0999 V2000
    1.1820   -1.2170    0.0000 C   0  0  0  0  0  0  0  0  0  0  0  0
    1.1810   -2.0440    0.0000 C   0  0  0  0  0  0  0  0  0  0  0  0
    1.8950   -2.4570    0.0000 C   0  0  0  0  0  0  0  0  0  0  0  0
    2.6120   -2.0440    0.0000 C   0  0  0  0  0  0  0  0  0  0  0  0
    2.6090   -1.2130    0.0000 C   0  0  0  0  0  0  0  0  0  0  0  0
    1.8940   -0.8040    0.0000 C   0  0  0  0  0  0  0  0  0  0  0  0
    0.4670   -0.8040    0.0000 F   0  0  0  0  0  0  0  0  0  0  0  0
    1.8910    0.0210    0.0000 C   0  0  0  0  0  0  0  0  0  0  0  0
    3.3220   -0.7980    0.0000 C   0  0  0  0  0  0  0  0  0  0  0  0
    4.7510   -0.7920    0.0000 C   0  0  0  0  0  0  0  0  0  0  0  0
    4.0400   -1.2100    0.0000 C   0  0  0  0  0  0  0  0  0  0  0  0
    4.2180   -2.0150    0.0000 C   0  0  0  0  0  0  0  0  0  0  0  0
    4.8300    0.0290    0.0000 C   0  0  0  0  0  0  0  0  0  0  0  0
    5.5840    0.3670    0.0000 C   0  0  0  0  0  0  0  0  0  0  0  0
    5.6640    1.1870    0.0000 C   0  0  0  0  0  0  0  0  0  0  0  0
    4.9920    1.6670    0.0000 C   0  0  0  0  0  0  0  0  0  0  0  0
    4.2380    1.3220    0.0000 C   0  0  0  0  0  0  0  0  0  0  0  0
    4.1620    0.5020    0.0000 C   0  0  0  0  0  0  0  0  0  0  0  0
    5.3680   -1.3390    0.0000 C   0  0  0  0  0  0  0  0  0  0  0  0
    5.0390   -2.0910    0.0000 N   0  0  0  0  0  0  0  0  0  0  0  0
    5.5230   -2.7480    0.0000 C   0  0  0  0  0  0  0  0  0  0  0  0
    6.3380   -2.6600    0.0000 C   0  0  0  0  0  0  0  0  0  0  0  0
    6.6670   -1.9080    0.0000 C   0  0  0  0  0  0  0  0  0  0  0  0
    6.1810   -1.2440    0.0000 C   0  0  0  0  0  0  0  0  0  0  0  0
    3.6730   -2.6340    0.0000 C   0  0  0  0  0  0  0  0  0  0  0  0
    2.8640   -2.4710    0.0000 O   0  0  0  0  0  0  0  0  0  0  0  0
    3.9360   -3.4160    0.0000 N   0  0  0  0  0  0  0  0  0  0  0  0
    3.3880   -4.0300    0.0000 C   0  0  0  0  0  0  0  0  0  0  0  0
    3.6480   -4.8090    0.0000 C   0  0  0  0  0  0  0  0  0  0  0  0
    4.4560   -4.9760    0.0000 N   0  0  0  0  0  0  0  0  0  0  0  0
    5.0040   -4.3580    0.0000 C   0  0  2  0  0  0  0  0  0  0  0  0
    4.7440   -3.5720    0.0000 C   0  0  0  0  0  0  0  0  0  0  0  0
    5.8120   -4.5240    0.0000 C   0  0  0  0  0  0  0  0  0  0  0  0
    6.3600   -3.9070    0.0000 C   0  0  0  0  0  0  0  0  0  0  0  0
    7.1680   -4.0730    0.0000 N   0  0  0  0  0  0  0  0  0  0  0  0
    6.1000   -3.1240    0.0000 O   0  0  0  0  0  0  0  0  0  0  0  0
    7.7160   -3.4560    0.0000 C   0  0  0  0  0  0  0  0  0  0  0  0
    8.5240   -3.6220    0.0000 C   0  0  0  0  0  0  0  0  0  0  0  0
    9.0720   -3.0050    0.0000 C   0  0  0  0  0  0  0  0  0  0  0  0
    9.8800   -3.1710    0.0000 C   0  0  0  0  0  0  0  0  0  0  0  0
 23 24  2  0  0  0  0
 12 25  1  0  0  0  0
 11 12  2  0  0  0  0
 25 26  2  0  0  0  0
 12 20  1  0  0  0  0
 25 27  1  0  0  0  0
 27 28  1  0  0  0  0
 19 10  2  0  0  0  0
  1  7  1  0  0  0  0
 10 13  1  0  0  0  0
  3  4  2  0  0  0  0
 27 32  1  0  0  0  0
 28 29  1  0  0  0  0
 29 30  1  0  0  0  0
 30 31  1  0  0  0  0
 31 32  1  0  0  0  0
 13 14  2  0  0  0  0
  6  8  1  0  0  0  0
 14 15  1  0  0  0  0
  5  9  1  0  0  0  0
 15 16  2  0  0  0  0
  4  5  1  0  0  0  0
 16 17  1  0  0  0  0
  9 11  1  0  0  0  0
 31 33  1  6  0  0  0
 17 18  2  0  0  0  0
 33 34  1  0  0  0  0
 18 13  1  0  0  0  0
 34 35  1  0  0  0  0
 19 20  1  0  0  0  0
  2  3  1  0  0  0  0
  5  6  2  0  0  0  0
 10 11  1  0  0  0  0
  6  1  1  0  0  0  0
  1  2  2  0  0  0  0
 19 24  1  0  0  0  0
 34 36  2  0  0  0  0
 35 37  1  0  0  0  0
 20 21  1  0  0  0  0
 37 38  1  0  0  0  0
 21 22  2  0  0  0  0
 38 39  1  0  0  0  0
 22 23  1  0  0  0  0
 39 40  1  0  0  0  0
M  END
>  <ID_NEW>
CPDRE1072

>  <pIC50>
7.853871964321761

$$$$

  SciTegic12180813522D

 34 38  0  0  0  0            999 V2000
    5.5125   -2.6125    0.0000 N   0  0
    5.9208   -3.3250    0.0000 C   0  0
    6.7375   -3.3276    0.0000 C   0  0
    7.1520   -2.6194    0.0000 N   0  0
    6.7437   -1.9069    0.0000 C   0  0
    5.9208   -1.9026    0.0000 C   0  0
    3.8603   -5.4211    0.0000 C   0  0
    3.1446   -5.8275    0.0000 C   0  0
    3.1398   -6.6487    0.0000 C   0  0
    3.8498   -7.0643    0.0000 C   0  0
    4.5663   -6.6529    0.0000 C   0  0
    4.5676   -5.8331    0.0000 C   0  0
    5.9140   -4.9130    0.0000 C   0  0
    5.6967   -5.7068    0.0000 C   0  0
    6.2749   -6.2899    0.0000 C   0  0
    7.0706   -6.0804    0.0000 C   0  0
    7.2849   -5.2825    0.0000 C   0  0
    6.7051   -4.7028    0.0000 C   0  0
    3.1943   -4.1161    0.0000 C   0  0
    3.4074   -3.3182    0.0000 C   0  0
    2.8236   -2.7366    0.0000 C   0  0
    2.0264   -2.9518    0.0000 C   0  0
    1.8163   -3.7539    0.0000 C   0  0
    2.4017   -4.3320    0.0000 N   0  0
    3.8667   -4.6000    0.0000 N   0  0
    4.5360   -4.1175    0.0000 C   0  0
    4.2792   -3.3292    0.0000 C   0  0
    1.0125   -3.9625    0.0000 O   0  0
    0.4250   -3.3750    0.0000 C   0  0
    5.3292   -4.3292    0.0000 O   0  0
    4.6875   -2.6125    0.0000 C   0  0
    4.2708   -1.8958    0.0000 O   0  0
    6.9167   -3.9000    0.0000 C   0  0
    6.0542   -7.0833    0.0000 F   0  0
  9 10  2  0
 21 22  2  0
  1  6  1  0
 22 23  1  0
 10 11  1  0
 23 24  2  0
 24 19  1  0
  2  3  1  0
 11 12  2  0
 26 27  2  0
 12  7  1  0
 25 26  1  0
 27 20  1  0
 19 25  1  0
 25  7  1  0
  3  4  1  0
 23 28  1  0
  4  5  1  0
 28 29  1  0
 13 14  2  0
 26 30  1  0
 30 13  1  0
  5  6  1  0
 27 31  1  0
 14 15  1  0
 31 32  2  0
 31  1  1  0
 18 33  1  0
 15 16  2  0
 15 34  1  0
  1  2  1  0
 16 17  1  0
  7  8  2  0
 17 18  2  0
 18 13  1  0
  8  9  1  0
 19 20  2  0
 20 21  1  0
M  END
>  <ID_NEW>
CPDRE1073

>  <pIC50>
7.823908740944318

$$$$

  SciTegic12180813522D

 32 36  0  0  0  0            999 V2000
    6.2190   -6.1785    0.0000 C   0  0
    6.2138   -6.8812    0.0000 C   0  0
    6.8188   -7.2354    0.0000 C   0  0
    7.4293   -6.8879    0.0000 C   0  0
    7.4311   -6.1826    0.0000 C   0  0
    6.8256   -5.8316    0.0000 C   0  0
    3.2086   -6.7236    0.0000 C   0  0
    3.2104   -5.3039    0.0000 N   0  0
    2.5992   -5.6547    0.0000 C   0  0
    2.5986   -6.3690    0.0000 C   0  0
    3.8235   -6.3690    0.0000 C   0  0
    3.8222   -5.6570    0.0000 C   0  0
    4.4990   -5.4358    0.0000 C   0  0
    4.9186   -6.0111    0.0000 C   0  0
    4.5010   -6.5878    0.0000 N   0  0
    4.7211   -7.2611    0.0000 C   0  0
    4.7167   -4.7617    0.0000 C   0  0
    5.4093   -4.6132    0.0000 N   0  0
    4.2418   -4.2362    0.0000 O   0  0
    4.2470   -7.7856    0.0000 C   0  0
    4.4666   -8.4583    0.0000 C   0  0
    5.1604   -8.6049    0.0000 C   0  0
    5.6342   -8.0735    0.0000 C   0  0
    5.4121   -7.4028    0.0000 C   0  0
    5.8850   -5.1436    0.0000 C   0  0
    6.5749   -4.9974    0.0000 C   0  0
    6.7421   -4.2533    0.0000 N   0  0
    6.3220   -3.7969    0.0000 C   0  0
    5.6266   -3.9428    0.0000 C   0  0
    5.6042   -5.8208    0.0000 C   0  0
    6.8208   -5.1292    0.0000 C   0  0
    5.7125   -7.3750    0.0000 C   0  0
  5  6  2  0
  6  1  1  0
  1  2  2  0
  3  4  2  0
  8 12  1  0
  9 10  1  0
 11 12  2  0
 12 13  1  0
 13 14  2  0
 14 15  1  0
 15 11  1  0
 15 16  1  0
 13 17  1  0
 17 18  1  0
 17 19  2  0
 16 20  2  0
 20 21  1  0
 21 22  2  0
 22 23  1  0
 23 24  2  0
 24 16  1  0
 18 25  1  0
 18 29  1  0
 25 26  1  0
 26 27  1  0
 27 28  1  0
 28 29  1  0
 11  7  1  0
  7 10  2  0
  9  8  2  0
 14 30  1  0
 30  1  1  0
  4  5  1  0
  6 31  1  0
  2  3  1  0
  2 32  1  0
M  END
>  <ID_NEW>
CPDRE1074

>  <pIC50>
7.823908740944318

$$$$

  SciTegic12180813512D

 32 36  0  0  0  0            999 V2000
    1.2228   -1.9919    0.0000 C   0  0
    0.5071   -2.3984    0.0000 C   0  0
    0.5023   -3.2195    0.0000 C   0  0
    1.2124   -3.6352    0.0000 C   0  0
    1.9288   -3.2237    0.0000 C   0  0
    1.9301   -2.4039    0.0000 C   0  0
    3.1003   -1.6133    0.0000 C   0  0
    2.6836   -2.3237    0.0000 C   0  0
    3.0903   -3.0376    0.0000 C   0  0
    3.9137   -3.0425    0.0000 C   0  0
    4.3286   -2.3274    0.0000 C   0  0
    3.9194   -1.6163    0.0000 C   0  0
    3.0500    0.6875    0.0000 N   0  0
    3.4584   -0.0250    0.0000 C   0  0
    4.2750   -0.0276    0.0000 C   0  0
    4.6896    0.6806    0.0000 N   0  0
    4.2812    1.3931    0.0000 C   0  0
    3.4584    1.3974    0.0000 C   0  0
    0.5568   -0.6870    0.0000 C   0  0
    0.7699    0.1110    0.0000 C   0  0
    0.1861    0.6925    0.0000 N   0  0
   -0.6111    0.4773    0.0000 C   0  0
   -0.8212   -0.3247    0.0000 C   0  0
   -0.2358   -0.9028    0.0000 C   0  0
    1.2292   -1.1708    0.0000 N   0  0
    1.8985   -0.6884    0.0000 C   0  0
    1.6417    0.0999    0.0000 C   0  0
    2.6917   -0.9000    0.0000 C   0  0
    2.2250    0.6875    0.0000 C   0  0
    1.8084    1.4041    0.0000 O   0  0
    4.3250   -0.8959    0.0000 F   0  0
    2.6708   -3.7500    0.0000 F   0  0
 10 11  1  0
 21 22  2  0
  5  6  2  0
 22 23  1  0
 11 12  2  0
 23 24  2  0
 24 19  1  0
 12  7  1  0
 13 14  1  0
 26 27  2  0
  6  1  1  0
 25 26  1  0
 27 20  1  0
 19 25  1  0
 25  1  1  0
  1  2  2  0
 26 28  1  0
 28  7  1  0
  3  4  2  0
 27 29  1  0
  7  8  2  0
 29 30  2  0
 29 13  1  0
  8  9  1  0
 13 18  1  0
 14 15  1  0
 15 16  1  0
 16 17  1  0
 17 18  1  0
  4  5  1  0
 12 31  1  0
  9 10  2  0
 19 20  2  0
  2  3  1  0
  9 32  1  0
 20 21  1  0
M  END
>  <ID_NEW>
CPDRE1075

>  <pIC50>
7.823908740944318

$$$$

  SciTegic12180813542D

 33 37  0  0  0  0            999 V2000
   -5.8306    1.0959    0.0000 C   0  0
   -5.8318    0.2685    0.0000 C   0  0
   -5.1169   -0.1443    0.0000 N   0  0
   -5.1187    1.5087    0.0000 C   0  0
   -3.6120    1.3582    0.0000 N   0  0
   -4.4034    1.0995    0.0000 C   0  0
   -4.4008    0.2664    0.0000 C   0  0
   -3.6070    0.0127    0.0000 C   0  0
   -3.1216    0.6900    0.0000 C   0  0
   -3.3958   -0.7791    0.0000 C   0  0
   -3.9799   -1.3618    0.0000 O   0  0
   -2.3292    0.9084    0.0000 O   0  0
   -3.6167    2.1834    0.0000 C   0  0
   -2.9020    2.5981    0.0000 C   0  0
   -2.9063    3.4226    0.0000 C   0  0
   -3.6238    3.8320    0.0000 C   0  0
   -4.3385    3.4109    0.0000 C   0  0
   -4.3307    2.5879    0.0000 C   0  0
   -2.8125   -1.3625    0.0000 N   0  0
   -3.0282   -2.1597    0.0000 C   0  0
   -2.4488   -2.7419    0.0000 C   0  0
   -1.6505   -2.5324    0.0000 N   0  0
   -1.4348   -1.7352    0.0000 C   0  0
   -2.0174   -1.1474    0.0000 C   0  0
   -1.5333    1.1250    0.0000 C   0  0
   -0.9490    0.5414    0.0000 C   0  0
   -0.1538    0.7575    0.0000 C   0  0
    0.0571    1.5558    0.0000 C   0  0
   -0.5333    2.1378    0.0000 C   0  0
   -1.3262    1.9187    0.0000 C   0  0
   -1.9138    2.4978    0.0000 C   0  0
   -1.1608   -0.2559    0.0000 C   0  0
   -2.4958    1.8875    0.0000 F   0  0
  1  2  2  0
  2  3  1  0
  3  7  2  0
  6  4  2  0
  4  1  1  0
  6  7  1  0
  5  6  1  0
  7  8  1  0
  8  9  2  0
  9  5  1  0
  8 10  1  0
 10 11  2  0
  9 12  1  0
  5 13  1  0
 13 14  2  0
 14 15  1  0
 15 16  2  0
 16 17  1  0
 17 18  2  0
 18 13  1  0
 10 19  1  0
 19 20  1  0
 19 24  1  0
 20 21  1  0
 21 22  1  0
 22 23  1  0
 23 24  1  0
 12 25  1  0
 25 26  2  0
 26 27  1  0
 27 28  2  0
 28 29  1  0
 29 30  2  0
 30 25  1  0
 30 31  1  0
 26 32  1  0
 14 33  1  0
M  END
>  <ID_NEW>
CPDRE1076

>  <pIC50>
7.823908740944318

$$$$

  -MTS-   10172316392D 0   0.00000     0.00000     0

 44 49  0  0  1  0  0  0  0  0999 V2000
    1.0110   -4.5960    0.0000 C   0  0  0  0  0  0  0  0  0  0  0  0
    1.0100   -5.4230    0.0000 C   0  0  0  0  0  0  0  0  0  0  0  0
    1.7250   -5.8360    0.0000 C   0  0  0  0  0  0  0  0  0  0  0  0
    2.4410   -5.4230    0.0000 C   0  0  0  0  0  0  0  0  0  0  0  0
    2.4380   -4.5920    0.0000 C   0  0  0  0  0  0  0  0  0  0  0  0
    1.7230   -4.1830    0.0000 C   0  0  0  0  0  0  0  0  0  0  0  0
    0.2960   -4.1830    0.0000 F   0  0  0  0  0  0  0  0  0  0  0  0
    1.7200   -3.3580    0.0000 C   0  0  0  0  0  0  0  0  0  0  0  0
    3.1510   -4.1770    0.0000 C   0  0  0  0  0  0  0  0  0  0  0  0
    3.8670   -4.5870    0.0000 C   0  0  0  0  0  0  0  0  0  0  0  0
    3.9560   -5.4060    0.0000 C   0  0  0  0  0  0  0  0  0  0  0  0
    4.6190   -4.2480    0.0000 C   0  0  0  0  0  0  0  0  0  0  0  0
    4.7870   -3.4400    0.0000 C   0  0  0  0  0  0  0  0  0  0  0  0
    3.3440   -5.9600    0.0000 C   0  0  0  0  0  0  0  0  0  0  0  0
    2.5590   -5.7080    0.0000 O   0  0  0  0  0  0  0  0  0  0  0  0
    3.5190   -6.7670    0.0000 N   0  0  0  0  0  0  0  0  0  0  0  0
    2.9010   -7.3210    0.0000 C   0  0  0  0  0  0  0  0  0  0  0  0
    3.0720   -8.1250    0.0000 C   0  0  0  0  0  0  0  0  0  0  0  0
    3.8560   -8.3810    0.0000 N   0  0  0  0  0  0  0  0  0  0  0  0
    4.4700   -7.8280    0.0000 C   0  0  2  0  0  0  0  0  0  0  0  0
    4.2990   -7.0180    0.0000 C   0  0  0  0  0  0  0  0  0  0  0  0
    5.1730   -4.8590    0.0000 C   0  0  0  0  0  0  0  0  0  0  0  0
    4.7620   -5.5750    0.0000 N   0  0  0  0  0  0  0  0  0  0  0  0
    5.1750   -6.2840    0.0000 C   0  0  0  0  0  0  0  0  0  0  0  0
    5.9990   -6.2840    0.0000 C   0  0  0  0  0  0  0  0  0  0  0  0
    6.4100   -5.5680    0.0000 C   0  0  0  0  0  0  0  0  0  0  0  0
    5.9960   -4.8530    0.0000 C   0  0  0  0  0  0  0  0  0  0  0  0
    5.5690   -3.1840    0.0000 C   0  0  0  0  0  0  0  0  0  0  0  0
    5.7380   -2.3770    0.0000 C   0  0  0  0  0  0  0  0  0  0  0  0
    5.1220   -1.8270    0.0000 C   0  0  0  0  0  0  0  0  0  0  0  0
    4.3350   -2.0890    0.0000 C   0  0  0  0  0  0  0  0  0  0  0  0
    4.1700   -2.8950    0.0000 C   0  0  0  0  0  0  0  0  0  0  0  0
    5.2540   -8.0830    0.0000 C   0  0  0  0  0  0  0  0  0  0  0  0
    5.8680   -7.5310    0.0000 C   0  0  0  0  0  0  0  0  0  0  0  0
    6.6520   -7.7860    0.0000 N   0  0  0  0  0  0  0  0  0  0  0  0
    5.6960   -6.7240    0.0000 O   0  0  0  0  0  0  0  0  0  0  0  0
    7.2650   -7.2340    0.0000 C   0  0  0  0  0  0  0  0  0  0  0  0
    8.0500   -7.4890    0.0000 C   0  0  0  0  0  0  0  0  0  0  0  0
    8.6630   -6.9370    0.0000 N   0  0  0  0  0  0  0  0  0  0  0  0
    9.4440   -7.1940    0.0000 C   0  0  0  0  0  0  0  0  0  0  0  0
   10.0550   -6.6460    0.0000 C   0  0  0  0  0  0  0  0  0  0  0  0
    9.8880   -5.8380    0.0000 O   0  0  0  0  0  0  0  0  0  0  0  0
    9.1030   -5.5800    0.0000 C   0  0  0  0  0  0  0  0  0  0  0  0
    8.4860   -6.1310    0.0000 C   0  0  0  0  0  0  0  0  0  0  0  0
 11 23  1  0  0  0  0
 22 12  2  0  0  0  0
 12 10  1  0  0  0  0
 22 27  1  0  0  0  0
 23 24  1  0  0  0  0
 24 25  2  0  0  0  0
 25 26  1  0  0  0  0
 26 27  2  0  0  0  0
  6  1  1  0  0  0  0
 13 28  2  0  0  0  0
 12 13  1  0  0  0  0
 28 29  1  0  0  0  0
  1  2  2  0  0  0  0
 29 30  2  0  0  0  0
 11 14  1  0  0  0  0
 30 31  1  0  0  0  0
  1  7  1  0  0  0  0
 31 32  2  0  0  0  0
 32 13  1  0  0  0  0
 14 15  2  0  0  0  0
  3  4  2  0  0  0  0
 14 16  1  0  0  0  0
 16 17  1  0  0  0  0
  6  8  1  0  0  0  0
  5  9  1  0  0  0  0
  4  5  1  0  0  0  0
 20 33  1  6  0  0  0
  9 10  1  0  0  0  0
 33 34  1  0  0  0  0
 16 21  1  0  0  0  0
 34 35  1  0  0  0  0
 17 18  1  0  0  0  0
 34 36  2  0  0  0  0
 35 37  1  0  0  0  0
 18 19  1  0  0  0  0
 37 38  1  0  0  0  0
 19 20  1  0  0  0  0
 38 39  1  0  0  0  0
 39 40  1  0  0  0  0
 20 21  1  0  0  0  0
 22 23  1  0  0  0  0
 10 11  2  0  0  0  0
  2  3  1  0  0  0  0
  5  6  2  0  0  0  0
 39 44  1  0  0  0  0
 40 41  1  0  0  0  0
 41 42  1  0  0  0  0
 42 43  1  0  0  0  0
 43 44  1  0  0  0  0
M  END
>  <ID_NEW>
CPDRE1077

>  <pIC50>
7.823908740944318

$$$$

  SciTegic12180813102D

 32 36  0  0  0  0            999 V2000
   -5.8306    1.6542    0.0000 C   0  0
   -5.8318    0.8268    0.0000 C   0  0
   -5.1169    0.4139    0.0000 C   0  0
   -5.1187    2.0669    0.0000 C   0  0
   -4.4074    1.6541    0.0000 C   0  0
   -4.4026    0.8310    0.0000 C   0  0
   -3.6182    0.5811    0.0000 N   0  0
   -3.1382    1.2499    0.0000 C   0  0
   -3.6260    1.9130    0.0000 C   0  0
   -3.3757    2.6991    0.0000 C   0  0
   -2.5697    2.8754    0.0000 N   0  0
   -3.9313    3.3090    0.0000 O   0  0
   -2.0155    2.2623    0.0000 C   0  0
   -1.2127    2.4359    0.0000 C   0  0
   -0.9582    3.2210    0.0000 N   0  0
   -1.5130    3.8329    0.0000 C   0  0
   -2.3223    3.6597    0.0000 C   0  0
   -3.6250   -0.2417    0.0000 C   0  0
   -4.3433   -0.6453    0.0000 C   0  0
   -4.3504   -1.4674    0.0000 C   0  0
   -3.6407   -1.8855    0.0000 C   0  0
   -2.9223   -1.4756    0.0000 C   0  0
   -2.9187   -0.6549    0.0000 C   0  0
   -2.3458    1.0375    0.0000 O   0  0
   -1.5500    0.8250    0.0000 C   0  0
   -1.3385    0.0277    0.0000 C   0  0
   -0.5435   -0.1849    0.0000 C   0  0
    0.0394    0.3984    0.0000 C   0  0
   -0.1782    1.1973    0.0000 C   0  0
   -0.9728    1.4062    0.0000 C   0  0
   -1.1895    2.2022    0.0000 C   0  0
   -1.9224   -0.5551    0.0000 F   0  0
 25 26  2  0
 26 27  1  0
 27 28  2  0
 28 29  1  0
  1  2  2  0
 29 30  2  0
 30 25  1  0
  2  3  1  0
 30 31  1  0
  3  6  2  0
  5  4  2  0
  4  1  1  0
  5  6  1  0
  6  7  1  0
  7  8  1  0
  8  9  2  0
  9  5  1  0
  9 10  1  0
 10 11  1  0
 10 12  2  0
 11 13  1  0
 11 17  1  0
 13 14  1  0
 14 15  1  0
 15 16  1  0
 16 17  1  0
  7 18  1  0
 18 19  2  0
 19 20  1  0
 20 21  2  0
 21 22  1  0
 22 23  2  0
 23 18  1  0
  8 24  1  0
 24 25  1  0
 26 32  1  0
M  END
>  <ID_NEW>
CPDRE1078

>  <pIC50>
7.795880017344074

$$$$

  SciTegic12180813462D

 38 42  0  0  0  0            999 V2000
    6.1807   -5.9820    0.0000 N   0  0
    6.6626   -5.3105    0.0000 C   0  0
    6.1728   -4.6448    0.0000 C   0  0
    6.4402   -6.7651    0.0000 C   0  0
    6.4232   -3.8587    0.0000 C   0  0
    7.2291   -3.6825    0.0000 O   0  0
    5.8886   -7.3767    0.0000 C   0  0
    6.1476   -8.1592    0.0000 C   0  0
    6.9563   -8.3267    0.0000 C   0  0
    7.5056   -7.7054    0.0000 C   0  0
    7.2438   -6.9253    0.0000 C   0  0
    5.8676   -3.2489    0.0000 N   0  0
    6.1214   -2.4616    0.0000 C   0  0
    5.5697   -1.8531    0.0000 C   0  0
    4.7625   -2.0253    0.0000 N   0  0
    4.5101   -2.8117    0.0000 C   0  0
    5.0647   -3.4259    0.0000 C   0  0
    7.4876   -5.3056    0.0000 O   0  0
    8.3125   -5.3042    0.0000 C   0  0
    8.7244   -6.0202    0.0000 C   0  0
    9.5485   -6.0192    0.0000 C   0  0
    9.9606   -5.3035    0.0000 C   0  0
    9.5425   -4.5874    0.0000 C   0  0
    8.7197   -4.5920    0.0000 C   0  0
    8.3117   -6.7346    0.0000 C   0  0
    5.3932   -5.7312    0.0000 C   0  0
    5.3916   -4.9070    0.0000 C   0  0
    4.6782   -4.4981    0.0000 C   0  0
    3.9659   -4.9122    0.0000 C   0  0
    3.9715   -5.7395    0.0000 C   0  0
    4.6854   -6.1447    0.0000 C   0  0
    5.0812   -7.2071    0.0000 O   0  0
    4.5306   -7.8214    0.0000 C   0  0
    3.7232   -7.6518    0.0000 C   0  0
    3.1726   -8.2662    0.0000 C   0  0
    2.3653   -8.0965    0.0000 O   0  0
    1.8146   -8.7109    0.0000 C   0  0
    9.9513   -3.8708    0.0000 F   0  0
  9 10  1  0
 10 11  2  0
 11  4  1  0
  5 12  1  0
 12 13  1  0
 12 17  1  0
 13 14  1  0
 14 15  1  0
 15 16  1  0
 16 17  1  0
  2 18  1  0
 18 19  1  0
 19 20  2  0
 20 21  1  0
 21 22  2  0
 22 23  1  0
 23 24  2  0
 24 19  1  0
 20 25  1  0
 26 27  2  0
 27 28  1  0
 28 29  2  0
 29 30  1  0
 30 31  2  0
 31 26  1  0
  7 32  1  0
 32 33  1  0
 33 34  1  0
 34 35  1  0
 35 36  1  0
 36 37  1  0
 23 38  1  0
 26  1  1  0
  1  2  1  0
  2  3  2  0
  3 27  1  0
  1  4  1  0
  3  5  1  0
  5  6  2  0
  4  7  2  0
  7  8  1  0
  8  9  2  0
M  END
>  <ID_NEW>
CPDRE1079

>  <pIC50>
7.795880017344074

$$$$

  SciTegic12180813592D

 40 44  0  0  0  0            999 V2000
   -1.4720    0.3376    0.0000 C   0  0
   -1.0854   -0.3811    0.0000 C   0  0
   -1.0642    1.0445    0.0000 C   0  0
   -2.3084    0.3500    0.0000 O   0  0
   -0.2497   -0.3935    0.0000 C   0  0
   -1.4933   -1.0984    0.0000 C   0  0
   -0.2285    1.0322    0.0000 C   0  0
   -1.4507    1.7736    0.0000 C   0  0
    0.1723    0.3091    0.0000 C   0  0
   -2.6292    2.4458    0.0000 N   0  0
   -1.8292    2.2333    0.0000 C   0  0
   -1.2504    2.8131    0.0000 C   0  0
   -2.2620    3.8293    0.0000 C   0  0
   -2.8504    3.2423    0.0000 C   0  0
   -5.8281    0.9690    0.0000 C   0  0
   -5.8293    0.1374    0.0000 C   0  0
   -5.1104   -0.2754    0.0000 C   0  0
   -5.1122    1.3859    0.0000 N   0  0
   -3.5971    1.2313    0.0000 C   0  0
   -4.3926    0.9726    0.0000 C   0  0
   -4.3900    0.1353    0.0000 C   0  0
   -3.5920   -0.1184    0.0000 N   0  0
   -3.1067    0.5631    0.0000 C   0  0
   -3.1714   -0.8417    0.0000 C   0  0
   -2.3500   -0.8270    0.0000 C   0  0
   -3.5848   -1.5510    0.0000 C   0  0
   -1.9265   -1.5478    0.0000 C   0  0
   -3.1656   -2.2719    0.0000 C   0  0
   -2.3341   -2.2745    0.0000 C   0  0
   -3.3448    2.0208    0.0000 C   0  0
   -3.9031    2.6363    0.0000 O   0  0
   -1.4708    3.6209    0.0000 N   0  0
   -0.5417    2.4042    0.0000 C   0  0
    0.1727    2.8168    0.0000 C   0  0
    0.8873    2.4045    0.0000 N   0  0
    0.1725    3.6418    0.0000 O   0  0
    1.6017    2.8172    0.0000 C   0  0
    2.3162    2.4049    0.0000 C   0  0
    3.0306    2.8176    0.0000 C   0  0
    3.7417    3.2375    0.0000 N   0  0
  1  2  2  0
  1  3  1  0
  1  4  1  0
  2  5  1  0
  2  6  1  0
  3  7  2  0
  3  8  1  0
  7  9  1  0
  5  9  2  0
 13 14  1  0
 21 22  1  0
 22 23  1  0
 23 19  2  0
 24 25  2  0
 24 26  1  0
 24 22  1  0
 25 27  1  0
 26 28  2  0
 27 29  2  0
 28 29  1  0
 18 15  2  0
 20 21  2  0
 16 17  2  0
 17 21  1  0
 15 16  1  0
 20 18  1  0
 19 20  1  0
 19 30  1  0
 23  4  1  0
 30 31  2  0
 30 10  1  0
 10 11  1  0
 12 32  1  0
 13 32  1  0
 10 14  1  0
 11 12  1  0
 12 33  1  0
 33 34  1  0
 34 35  1  0
 34 36  2  0
 35 37  1  0
 37 38  1  0
 38 39  1  0
 39 40  3  0
M  END
>  <ID_NEW>
CPDRE1080

>  <pIC50>
7.795880017344074

$$$$

  -MTS-   10172316392D 0   0.00000     0.00000     0

 43 48  0  0  1  0  0  0  0  0999 V2000
   -1.4720    0.3380    0.0000 C   0  0  0  0  0  0  0  0  0  0  0  0
   -1.0850   -0.3810    0.0000 C   0  0  0  0  0  0  0  0  0  0  0  0
   -1.0640    1.0440    0.0000 C   0  0  0  0  0  0  0  0  0  0  0  0
   -2.3080    0.3500    0.0000 O   0  0  0  0  0  0  0  0  0  0  0  0
   -0.2500   -0.3930    0.0000 C   0  0  0  0  0  0  0  0  0  0  0  0
   -1.4930   -1.0980    0.0000 C   0  0  0  0  0  0  0  0  0  0  0  0
   -0.2280    1.0320    0.0000 C   0  0  0  0  0  0  0  0  0  0  0  0
   -1.4510    1.7740    0.0000 C   0  0  0  0  0  0  0  0  0  0  0  0
    0.1720    0.3090    0.0000 C   0  0  0  0  0  0  0  0  0  0  0  0
   -2.6290    2.4460    0.0000 N   0  0  0  0  0  0  0  0  0  0  0  0
   -1.8290    2.2330    0.0000 C   0  0  0  0  0  0  0  0  0  0  0  0
   -1.2500    2.8130    0.0000 C   0  0  0  0  0  0  0  0  0  0  0  0
   -2.2620    3.8290    0.0000 C   0  0  0  0  0  0  0  0  0  0  0  0
   -2.8500    3.2420    0.0000 C   0  0  0  0  0  0  0  0  0  0  0  0
   -5.8280    0.9690    0.0000 C   0  0  0  0  0  0  0  0  0  0  0  0
   -5.8290    0.1370    0.0000 C   0  0  0  0  0  0  0  0  0  0  0  0
   -5.1100   -0.2750    0.0000 C   0  0  0  0  0  0  0  0  0  0  0  0
   -5.1120    1.3860    0.0000 N   0  0  0  0  0  0  0  0  0  0  0  0
   -3.5970    1.2310    0.0000 C   0  0  0  0  0  0  0  0  0  0  0  0
   -4.3930    0.9730    0.0000 C   0  0  0  0  0  0  0  0  0  0  0  0
   -4.3900    0.1350    0.0000 C   0  0  0  0  0  0  0  0  0  0  0  0
   -3.5920   -0.1180    0.0000 N   0  0  0  0  0  0  0  0  0  0  0  0
   -3.1070    0.5630    0.0000 C   0  0  0  0  0  0  0  0  0  0  0  0
   -3.1710   -0.8420    0.0000 C   0  0  0  0  0  0  0  0  0  0  0  0
   -2.3500   -0.8270    0.0000 C   0  0  0  0  0  0  0  0  0  0  0  0
   -3.5850   -1.5510    0.0000 C   0  0  0  0  0  0  0  0  0  0  0  0
   -1.9260   -1.5480    0.0000 C   0  0  0  0  0  0  0  0  0  0  0  0
   -3.1660   -2.2720    0.0000 C   0  0  0  0  0  0  0  0  0  0  0  0
   -2.3340   -2.2740    0.0000 C   0  0  0  0  0  0  0  0  0  0  0  0
   -3.3450    2.0210    0.0000 C   0  0  0  0  0  0  0  0  0  0  0  0
   -3.9030    2.6360    0.0000 O   0  0  0  0  0  0  0  0  0  0  0  0
   -1.4710    3.6210    0.0000 N   0  0  0  0  0  0  0  0  0  0  0  0
   -0.5420    2.4040    0.0000 C   0  0  0  0  0  0  0  0  0  0  0  0
    0.1730    2.8170    0.0000 C   0  0  0  0  0  0  0  0  0  0  0  0
    0.8870    2.4040    0.0000 N   0  0  0  0  0  0  0  0  0  0  0  0
    0.1720    3.6420    0.0000 O   0  0  0  0  0  0  0  0  0  0  0  0
    1.5960    1.9960    0.0000 C   0  0  0  0  0  0  0  0  0  0  0  0
    2.3080    2.4120    0.0000 C   0  0  1  0  0  0  0  0  0  0  0  0
    3.0640    2.0810    0.0000 N   0  0  0  0  0  0  0  0  0  0  0  0
    3.6130    2.6970    0.0000 C   0  0  0  0  0  0  0  0  0  0  0  0
    3.1960    3.4100    0.0000 C   0  0  0  0  0  0  0  0  0  0  0  0
    2.3900    3.2340    0.0000 C   0  0  0  0  0  0  0  0  0  0  0  0
    4.4340    2.6160    0.0000 O   0  0  0  0  0  0  0  0  0  0  0  0
  3  8  1  0  0  0  0
  7  9  1  0  0  0  0
  5  9  2  0  0  0  0
 13 14  1  0  0  0  0
 21 22  1  0  0  0  0
 22 23  1  0  0  0  0
 23 19  2  0  0  0  0
 24 25  2  0  0  0  0
 24 26  1  0  0  0  0
 24 22  1  0  0  0  0
 25 27  1  0  0  0  0
 26 28  2  0  0  0  0
 27 29  2  0  0  0  0
 28 29  1  0  0  0  0
 18 15  2  0  0  0  0
 20 21  2  0  0  0  0
 16 17  2  0  0  0  0
 17 21  1  0  0  0  0
 15 16  1  0  0  0  0
 20 18  1  0  0  0  0
 19 20  1  0  0  0  0
 19 30  1  0  0  0  0
 23  4  1  0  0  0  0
 30 31  2  0  0  0  0
 30 10  1  0  0  0  0
 10 11  1  0  0  0  0
 12 32  1  0  0  0  0
 13 32  1  0  0  0  0
 10 14  1  0  0  0  0
 11 12  1  0  0  0  0
 12 33  1  0  0  0  0
 33 34  1  0  0  0  0
 34 35  1  0  0  0  0
 34 36  2  0  0  0  0
 35 37  1  0  0  0  0
  1  2  2  0  0  0  0
 37 38  1  0  0  0  0
 38 39  1  0  0  0  0
  1  3  1  0  0  0  0
  1  4  1  0  0  0  0
  2  5  1  0  0  0  0
  2  6  1  0  0  0  0
 39 40  1  0  0  0  0
 40 41  1  0  0  0  0
 41 42  1  0  0  0  0
 38 42  1  6  0  0  0
  3  7  2  0  0  0  0
 40 43  2  0  0  0  0
M  END
>  <ID_NEW>
CPDRE1081

>  <pIC50>
7.795880017344074

$$$$

  SciTegic12180813542D

 32 36  0  0  0  0            999 V2000
    3.2698   -2.1106    0.0000 C   0  0
    3.2635   -3.3338    0.0000 C   0  0
    2.2154   -1.5218    0.0000 C   0  0
    4.2948   -1.5147    0.0000 C   0  0
    2.2160   -3.9547    0.0000 C   0  0
    4.2946   -3.9473    0.0000 F   0  0
    1.1605   -2.1285    0.0000 C   0  0
    2.2074   -0.2854    0.0000 Cl  0  0
    5.3417   -2.1070    0.0000 C   0  0
    1.1675   -3.3416    0.0000 C   0  0
    5.4915   -3.3159    0.0000 C   0  0
    6.4390   -1.5943    0.0000 C   0  0
    7.2557   -2.4876    0.0000 C   0  0
    6.6690   -3.5478    0.0000 N   0  0
    7.2759   -4.5860    0.0000 C   0  0
    8.4776   -4.5745    0.0000 C   0  0
    9.0609   -3.5103    0.0000 C   0  0
    8.4500   -2.4731    0.0000 C   0  0
    6.6751   -0.4017    0.0000 C   0  0
    7.8152   -0.0135    0.0000 C   0  0
    8.0472    1.1777    0.0000 C   0  0
    7.1431    1.9827    0.0000 C   0  0
    5.9980    1.5868    0.0000 C   0  0
    5.7681    0.3926    0.0000 C   0  0
    5.1749   -4.4875    0.0000 C   0  0
    4.0164   -4.7945    0.0000 O   0  0
    6.0170   -5.3479    0.0000 N   0  0
    5.6971   -6.5162    0.0000 C   0  0
    6.5366   -7.3745    0.0000 C   0  0
    7.6976   -7.0703    0.0000 N   0  0
    8.0137   -5.9023    0.0000 C   0  0
    7.1729   -5.0342    0.0000 C   0  0
  5 10  1  0
 19 20  2  0
  7 10  2  0
 20 21  1  0
  9 11  2  0
 21 22  2  0
 22 23  1  0
  1  2  1  0
 23 24  2  0
 24 19  1  0
 11 25  1  0
 11 14  1  0
 25 26  2  0
 13 12  2  0
 25 27  1  0
 12  9  1  0
  1  3  2  0
  1  4  1  0
 13 14  1  0
 27 28  1  0
  2  5  2  0
 14 15  1  0
  2  6  1  0
 15 16  2  0
 27 32  1  0
 28 29  1  0
 29 30  1  0
 30 31  1  0
 31 32  1  0
  3  7  1  0
 16 17  1  0
  3  8  1  0
 17 18  2  0
 18 13  1  0
  4  9  1  0
 12 19  1  0
M  END
>  <ID_NEW>
CPDRE1082

>  <pIC50>
7.769551078621725

$$$$

  SciTegic12180813452D

 34 38  0  0  0  0            999 V2000
   -0.2693   -0.5445    0.0000 N   0  0
    0.2293    0.1479    0.0000 C   0  0
   -0.2772    0.8302    0.0000 C   0  0
   -0.0014   -1.3484    0.0000 C   0  0
   -0.0184    1.6413    0.0000 C   0  0
    0.8083    1.8217    0.0000 O   0  0
   -0.5697   -1.9767    0.0000 C   0  0
   -0.3024   -2.7842    0.0000 C   0  0
    0.5313   -2.9558    0.0000 C   0  0
    1.0931   -2.3179    0.0000 C   0  0
    0.8272   -1.5128    0.0000 C   0  0
   -0.5907    2.2678    0.0000 N   0  0
   -0.3286    3.0759    0.0000 C   0  0
   -0.8969    3.7053    0.0000 C   0  0
   -1.7291    3.5247    0.0000 N   0  0
   -1.9857    2.7175    0.0000 C   0  0
   -1.4186    2.0866    0.0000 C   0  0
    1.0751    0.1528    0.0000 O   0  0
    1.9250    0.1542    0.0000 C   0  0
    2.3494   -0.5827    0.0000 C   0  0
    3.1985   -0.5817    0.0000 C   0  0
    3.6190    0.1549    0.0000 C   0  0
    3.1925    0.8918    0.0000 C   0  0
    2.3447    0.8872    0.0000 C   0  0
    1.9242   -1.3179    0.0000 C   0  0
   -1.0776   -0.2853    0.0000 C   0  0
   -1.0792    0.5639    0.0000 C   0  0
   -1.8134    0.9811    0.0000 C   0  0
   -2.5466    0.5587    0.0000 C   0  0
   -2.5410   -0.2936    0.0000 C   0  0
   -1.8062   -0.7113    0.0000 C   0  0
    3.6132   -1.2949    0.0000 F   0  0
   -3.2527   -0.7108    0.0000 O   0  0
   -3.9699   -0.3031    0.0000 C   0  0
  5  6  2  0
  4  7  2  0
  7  8  1  0
  8  9  2  0
  9 10  1  0
 10 11  2  0
 11  4  1  0
  5 12  1  0
 12 13  1  0
 12 17  1  0
 13 14  1  0
 14 15  1  0
 15 16  1  0
 16 17  1  0
  2 18  1  0
 18 19  1  0
 19 20  2  0
 20 21  1  0
 21 22  2  0
 22 23  1  0
 21 32  1  0
 30 33  1  0
 33 34  1  0
 23 24  2  0
 24 19  1  0
 20 25  1  0
 26 27  2  0
 27 28  1  0
 28 29  2  0
 29 30  1  0
 30 31  2  0
 31 26  1  0
 26  1  1  0
  1  2  1  0
  2  3  2  0
  3 27  1  0
  1  4  1  0
  3  5  1  0
M  END
>  <ID_NEW>
CPDRE1083

>  <pIC50>
7.769551078621725

$$$$

  -MTS-   10172316392D 0   0.00000     0.00000     0

 43 47  0  0  1  0  0  0  0  0999 V2000
    0.0460   -2.1120    0.0000 C   0  0  0  0  0  0  0  0  0  0  0  0
    0.0460   -2.9370    0.0000 C   0  0  0  0  0  0  0  0  0  0  0  0
    0.7580   -3.3460    0.0000 C   0  0  0  0  0  0  0  0  0  0  0  0
    0.7580   -1.6960    0.0000 C   0  0  0  0  0  0  0  0  0  0  0  0
    1.4700   -2.1120    0.0000 N   0  0  0  0  0  0  0  0  0  0  0  0
    1.4700   -2.9340    0.0000 C   0  0  0  0  0  0  0  0  0  0  0  0
    2.2510   -3.1880    0.0000 C   0  0  0  0  0  0  0  0  0  0  0  0
    2.7340   -2.5230    0.0000 C   0  0  0  0  0  0  0  0  0  0  0  0
    2.2510   -1.8590    0.0000 C   0  0  0  0  0  0  0  0  0  0  0  0
    2.5060   -3.9720    0.0000 C   0  0  0  0  0  0  0  0  0  0  0  0
    3.5590   -2.5230    0.0000 C   0  0  0  0  0  0  0  0  0  0  0  0
    3.9720   -3.2380    0.0000 C   0  0  0  0  0  0  0  0  0  0  0  0
    1.9510   -4.5820    0.0000 C   0  0  0  0  0  0  0  0  0  0  0  0
    2.2050   -5.3660    0.0000 C   0  0  0  0  0  0  0  0  0  0  0  0
    3.0130   -5.5380    0.0000 C   0  0  0  0  0  0  0  0  0  0  0  0
    3.5660   -4.9200    0.0000 C   0  0  0  0  0  0  0  0  0  0  0  0
    3.3090   -4.1390    0.0000 C   0  0  0  0  0  0  0  0  0  0  0  0
    3.5560   -3.9510    0.0000 C   0  0  0  0  0  0  0  0  0  0  0  0
    3.9670   -4.6650    0.0000 C   0  0  0  0  0  0  0  0  0  0  0  0
    4.7930   -4.6650    0.0000 C   0  0  0  0  0  0  0  0  0  0  0  0
    5.2060   -3.9460    0.0000 C   0  0  0  0  0  0  0  0  0  0  0  0
    4.7910   -3.2350    0.0000 C   0  0  0  0  0  0  0  0  0  0  0  0
    5.2010   -2.5190    0.0000 C   0  0  0  0  0  0  0  0  0  0  0  0
    6.0310   -3.9430    0.0000 F   0  0  0  0  0  0  0  0  0  0  0  0
    2.5060   -1.0740    0.0000 C   0  0  0  0  0  0  0  0  0  0  0  0
    3.3130   -0.9020    0.0000 N   0  0  0  0  0  0  0  0  0  0  0  0
    1.9540   -0.4610    0.0000 O   0  0  0  0  0  0  0  0  0  0  0  0
    3.8650   -1.5190    0.0000 C   0  0  0  0  0  0  0  0  0  0  0  0
    4.6690   -1.3500    0.0000 C   0  0  1  0  0  0  0  0  0  0  0  0
    4.9280   -0.5670    0.0000 N   0  0  0  0  0  0  0  0  0  0  0  0
    4.3770    0.0480    0.0000 C   0  0  0  0  0  0  0  0  0  0  0  0
    3.5660   -0.1200    0.0000 C   0  0  0  0  0  0  0  0  0  0  0  0
    5.0750   -2.0620    0.0000 C   0  0  0  0  0  0  0  0  0  0  0  0
    5.8710   -1.8460    0.0000 C   0  0  0  0  0  0  0  0  0  0  0  0
    6.4540   -2.4290    0.0000 N   0  0  0  0  0  0  0  0  0  0  0  0
    6.0830   -1.0460    0.0000 O   0  0  0  0  0  0  0  0  0  0  0  0
    7.2500   -2.2120    0.0000 C   0  0  0  0  0  0  0  0  0  0  0  0
    7.8330   -2.7960    0.0000 C   0  0  0  0  0  0  0  0  0  0  0  0
    8.6290   -2.5790    0.0000 C   0  0  0  0  0  0  0  0  0  0  0  0
    9.2150   -3.1600    0.0000 N   0  0  0  0  0  0  0  0  0  0  0  0
    8.8400   -1.7810    0.0000 O   0  0  0  0  0  0  0  0  0  0  0  0
    9.0040   -3.9580    0.0000 C   0  0  0  0  0  0  0  0  0  0  0  0
   10.0110   -2.9430    0.0000 C   0  0  0  0  0  0  0  0  0  0  0  0
 13 14  1  0  0  0  0
  2  3  2  0  0  0  0
 26 32  1  0  0  0  0
 28 29  1  0  0  0  0
 29 30  1  0  0  0  0
 30 31  1  0  0  0  0
 31 32  1  0  0  0  0
 14 15  2  0  0  0  0
  3  6  1  0  0  0  0
 15 16  1  0  0  0  0
  6  7  2  0  0  0  0
 16 17  2  0  0  0  0
 17 10  1  0  0  0  0
  7  8  1  0  0  0  0
 12 18  2  0  0  0  0
  8  9  2  0  0  0  0
 18 19  1  0  0  0  0
  9  5  1  0  0  0  0
 19 20  2  0  0  0  0
  5  4  1  0  0  0  0
 29 33  1  1  0  0  0
 20 21  1  0  0  0  0
 33 34  1  0  0  0  0
  7 10  1  0  0  0  0
 34 35  1  0  0  0  0
 21 22  2  0  0  0  0
 34 36  2  0  0  0  0
 22 12  1  0  0  0  0
  5  6  1  0  0  0  0
 22 23  1  0  0  0  0
  8 11  1  0  0  0  0
 21 24  1  0  0  0  0
  9 25  1  0  0  0  0
 11 12  1  0  0  0  0
 35 37  1  0  0  0  0
 25 26  1  0  0  0  0
 37 38  1  0  0  0  0
  1  2  1  0  0  0  0
 38 39  1  0  0  0  0
 25 27  2  0  0  0  0
 39 40  1  0  0  0  0
 26 28  1  0  0  0  0
 39 41  2  0  0  0  0
 10 13  2  0  0  0  0
 40 42  1  0  0  0  0
  1  4  2  0  0  0  0
 40 43  1  0  0  0  0
M  END
>  <ID_NEW>
CPDRE1084

>  <pIC50>
7.769551078621725

$$$$

  SciTegic12180813452D

 32 36  0  0  0  0            999 V2000
   -5.8306    1.6417    0.0000 C   0  0
   -5.8318    0.8144    0.0000 C   0  0
   -5.1169    0.4015    0.0000 C   0  0
   -5.1187    2.0545    0.0000 C   0  0
   -4.4034    1.6454    0.0000 C   0  0
   -4.3985    0.8143    0.0000 C   0  0
   -3.6066    0.5621    0.0000 N   0  0
   -3.1220    1.2374    0.0000 C   0  0
   -3.6145    1.9067    0.0000 C   0  0
   -3.3471   -0.2210    0.0000 C   0  0
   -3.3642    2.6928    0.0000 C   0  0
   -2.5582    2.8691    0.0000 N   0  0
   -3.9198    3.3027    0.0000 O   0  0
   -2.0014    2.2616    0.0000 C   0  0
   -1.1986    2.4352    0.0000 C   0  0
   -0.9441    3.2204    0.0000 N   0  0
   -1.4989    3.8322    0.0000 C   0  0
   -2.3082    3.6590    0.0000 C   0  0
   -3.8973   -0.8369    0.0000 C   0  0
   -3.6383   -1.6195    0.0000 C   0  0
   -2.8296   -1.7869    0.0000 C   0  0
   -2.2803   -1.1656    0.0000 C   0  0
   -2.5422   -0.3855    0.0000 C   0  0
   -2.2970    1.2422    0.0000 C   0  0
   -1.5875    0.8334    0.0000 C   0  0
   -1.5896    0.0134    0.0000 C   0  0
   -0.8809   -0.3954    0.0000 C   0  0
   -0.1710    0.0147    0.0000 C   0  0
   -0.1744    0.8378    0.0000 C   0  0
   -0.8836    1.2429    0.0000 C   0  0
   -0.8870    2.0679    0.0000 C   0  0
    0.5383    1.2535    0.0000 F   0  0
  1  2  2  0
  2  3  1  0
  3  6  2  0
  5  4  2  0
  4  1  1  0
  5  6  1  0
  6  7  1  0
  7  8  1  0
  8  9  2  0
  9  5  1  0
  7 10  1  0
  9 11  1  0
 11 12  1  0
 11 13  2  0
 12 14  1  0
 12 18  1  0
 14 15  1  0
 15 16  1  0
 16 17  1  0
 17 18  1  0
 10 19  2  0
 19 20  1  0
 20 21  2  0
 21 22  1  0
 22 23  2  0
 23 10  1  0
  8 24  1  0
 24 25  1  0
 25 26  2  0
 26 27  1  0
 27 28  2  0
 28 29  1  0
 29 30  2  0
 30 25  1  0
 30 31  1  0
 29 32  1  0
M  END
>  <ID_NEW>
CPDRE1085

>  <pIC50>
7.744727494896693

$$$$

  SciTegic12180813492D

 34 38  0  0  0  0            999 V2000
   -4.2605    0.9343    0.0000 C   0  0
   -5.0414    0.4787    0.0000 C   0  0
   -5.0343   -0.4212    0.0000 C   0  0
   -4.2464   -0.8698    0.0000 C   0  0
   -3.4768    0.4899    0.0000 C   0  0
   -3.4696   -0.4100    0.0000 C   0  0
   -2.6105   -0.6838    0.0000 N   0  0
   -2.0837    0.0488    0.0000 C   0  0
   -2.6245    0.7766    0.0000 C   0  0
   -2.3279   -1.5401    0.0000 C   0  0
   -2.9232   -2.2166    0.0000 C   0  0
   -2.6407   -3.0729    0.0000 C   0  0
   -1.7545   -3.2530    0.0000 C   0  0
   -1.1551   -2.5766    0.0000 C   0  0
   -1.4418   -1.7202    0.0000 C   0  0
   -2.3509    1.6357    0.0000 C   0  0
   -1.4693    1.8295    0.0000 O   0  0
   -2.9587    2.3013    0.0000 N   0  0
   -2.6851    3.1646    0.0000 C   0  0
   -3.2929    3.8301    0.0000 C   0  0
   -4.1744    3.6364    0.0000 N   0  0
   -4.4481    2.7731    0.0000 C   0  0
   -3.8402    2.1076    0.0000 C   0  0
   -1.4720   -4.1094    0.0000 F   0  0
   -5.8110   -0.8809    0.0000 O   0  0
   -0.6241    0.5974    0.0000 C   0  0
    0.2675    0.4438    0.0000 C   0  0
   -0.9352    1.4406    0.0000 C   0  0
   -1.1963   -0.1006    0.0000 O   0  0
    0.8398    1.1418    0.0000 C   0  0
    0.5828   -0.3993    0.0000 C   0  0
   -0.3629    2.1343    0.0000 C   0  0
    0.5287    1.9849    0.0000 C   0  0
   -0.6782    2.9817    0.0000 F   0  0
  5  1  1  0
  1  2  2  0
  2  3  1  0
  3  4  2  0
  4  6  1  0
  5  6  2  0
  9 16  1  0
 16 17  2  0
 16 18  1  0
 18 19  1  0
 18 23  1  0
 19 20  1  0
 20 21  1  0
 21 22  1  0
 22 23  1  0
 13 24  1  0
  3 25  1  0
  6  7  1  0
  7  8  1  0
  8  9  2  0
  9  5  1  0
  7 10  1  0
 10 11  2  0
 11 12  1  0
 26 27  2  0
 26 28  1  0
 26 29  1  0
 27 30  1  0
 27 31  1  0
 28 32  2  0
 30 33  2  0
 32 34  1  0
 32 33  1  0
  8 29  1  0
 12 13  2  0
 13 14  1  0
 14 15  2  0
 15 10  1  0
M  END
>  <ID_NEW>
CPDRE1086

>  <pIC50>
7.744727494896693

$$$$

  -MTS-   10172316392D 0   0.00000     0.00000     0

 46 50  0  0  1  0  0  0  0  0999 V2000
    4.2230   -6.6650    0.0000 N   0  0  0  0  0  0  0  0  0  0  0  0
    3.5970   -7.2000    0.0000 C   0  0  0  0  0  0  0  0  0  0  0  0
    3.7510   -8.0070    0.0000 C   0  0  0  0  0  0  0  0  0  0  0  0
    4.5290   -8.2820    0.0000 N   0  0  0  0  0  0  0  0  0  0  0  0
    5.1550   -7.7430    0.0000 C   0  0  2  0  0  0  0  0  0  0  0  0
    5.0020   -6.9290    0.0000 C   0  0  0  0  0  0  0  0  0  0  0  0
    5.9330   -8.0150    0.0000 C   0  0  0  0  0  0  0  0  0  0  0  0
    6.5170   -7.4250    0.0000 C   0  0  0  0  0  0  0  0  0  0  0  0
    6.2980   -6.6290    0.0000 O   0  0  0  0  0  0  0  0  0  0  0  0
    7.3150   -7.6340    0.0000 N   0  0  0  0  0  0  0  0  0  0  0  0
    7.5330   -8.4290    0.0000 C   0  0  0  0  0  0  0  0  0  0  0  0
    8.3310   -8.6380    0.0000 C   0  0  0  0  0  0  0  0  0  0  0  0
    8.5500   -9.4330    0.0000 O   0  0  0  0  0  0  0  0  0  0  0  0
    9.3480   -9.6420    0.0000 C   0  0  0  0  0  0  0  0  0  0  0  0
    6.5330   -6.1770    0.0000 C   0  0  0  0  0  0  0  0  0  0  0  0
    6.9450   -5.5010    0.0000 C   0  0  0  0  0  0  0  0  0  0  0  0
    6.5660   -4.8110    0.0000 C   0  0  0  0  0  0  0  0  0  0  0  0
    5.7440   -6.1590    0.0000 N   0  0  0  0  0  0  0  0  0  0  0  0
    5.3710   -5.4680    0.0000 N   0  0  0  0  0  0  0  0  0  0  0  0
    5.7760   -4.7870    0.0000 C   0  0  0  0  0  0  0  0  0  0  0  0
    5.2630   -4.1960    0.0000 C   0  0  0  0  0  0  0  0  0  0  0  0
    4.5360   -4.5000    0.0000 C   0  0  0  0  0  0  0  0  0  0  0  0
    4.6080   -5.2850    0.0000 C   0  0  0  0  0  0  0  0  0  0  0  0
    3.8590   -4.0980    0.0000 C   0  0  0  0  0  0  0  0  0  0  0  0
    7.7390   -5.5150    0.0000 C   0  0  0  0  0  0  0  0  0  0  0  0
    8.1480   -4.8420    0.0000 O   0  0  0  0  0  0  0  0  0  0  0  0
    8.1200   -6.2100    0.0000 N   0  0  0  0  0  0  0  0  0  0  0  0
    5.4450   -3.4360    0.0000 C   0  0  0  0  0  0  0  0  0  0  0  0
    6.1920   -3.2150    0.0000 C   0  0  0  0  0  0  0  0  0  0  0  0
    6.3700   -2.4530    0.0000 C   0  0  0  0  0  0  0  0  0  0  0  0
    5.8020   -1.9140    0.0000 C   0  0  0  0  0  0  0  0  0  0  0  0
    5.0500   -2.1450    0.0000 C   0  0  0  0  0  0  0  0  0  0  0  0
    4.8740   -2.9070    0.0000 C   0  0  0  0  0  0  0  0  0  0  0  0
    3.1390   -4.5010    0.0000 C   0  0  0  0  0  0  0  0  0  0  0  0
    2.4320   -4.0760    0.0000 C   0  0  0  0  0  0  0  0  0  0  0  0
    1.7130   -4.4780    0.0000 C   0  0  0  0  0  0  0  0  0  0  0  0
    1.7020   -5.3040    0.0000 C   0  0  0  0  0  0  0  0  0  0  0  0
    2.4160   -5.7260    0.0000 C   0  0  0  0  0  0  0  0  0  0  0  0
    3.1330   -5.3210    0.0000 C   0  0  0  0  0  0  0  0  0  0  0  0
    2.4450   -3.2510    0.0000 C   0  0  0  0  0  0  0  0  0  0  0  0
    1.0040   -4.0560    0.0000 F   0  0  0  0  0  0  0  0  0  0  0  0
    4.0170   -5.8670    0.0000 C   0  0  0  0  0  0  0  0  0  0  0  0
    3.2220   -5.6470    0.0000 O   0  0  0  0  0  0  0  0  0  0  0  0
    7.8950   -7.0470    0.0000 C   0  0  0  0  0  0  0  0  0  0  0  0
    7.6920   -6.9160    0.0000 C   0  0  0  0  0  0  0  0  0  0  0  0
    8.9450   -6.2280    0.0000 C   0  0  0  0  0  0  0  0  0  0  0  0
  8 10  1  0  0  0  0
  1  6  1  0  0  0  0
 10 11  1  0  0  0  0
 11 12  1  0  0  0  0
  2  3  1  0  0  0  0
 12 13  1  0  0  0  0
 23 19  1  0  0  0  0
 30 31  2  0  0  0  0
 19 18  1  0  0  0  0
 31 32  1  0  0  0  0
 22 24  1  0  0  0  0
 32 33  2  0  0  0  0
 33 28  1  0  0  0  0
 19 20  1  0  0  0  0
 16 25  1  0  0  0  0
 25 26  2  0  0  0  0
 15 16  1  0  0  0  0
 15 18  2  0  0  0  0
 25 27  1  0  0  0  0
 16 17  2  0  0  0  0
 17 20  1  0  0  0  0
 20 21  2  0  0  0  0
 21 28  1  0  0  0  0
 21 22  1  0  0  0  0
 28 29  2  0  0  0  0
 22 23  2  0  0  0  0
 29 30  1  0  0  0  0
 13 14  1  0  0  0  0
 24 34  1  0  0  0  0
  3  4  1  0  0  0  0
 34 35  2  0  0  0  0
 35 36  1  0  0  0  0
  4  5  1  0  0  0  0
 36 37  2  0  0  0  0
 37 38  1  0  0  0  0
  5  6  1  0  0  0  0
 38 39  2  0  0  0  0
 39 34  1  0  0  0  0
 35 40  1  0  0  0  0
  1  2  1  0  0  0  0
 36 41  1  0  0  0  0
  5  7  1  6  0  0  0
 23 42  1  0  0  0  0
 42 43  2  0  0  0  0
 42  1  1  0  0  0  0
  7  8  1  0  0  0  0
 10 44  1  0  0  0  0
  8  9  2  0  0  0  0
 27 45  1  0  0  0  0
 27 46  1  0  0  0  0
M  END
>  <ID_NEW>
CPDRE1087

>  <pIC50>
7.744727494896693

$$$$

  SciTegic12180813592D

 44 49  0  0  0  0            999 V2000
   -1.4720    0.1168    0.0000 C   0  0
   -1.0854   -0.6019    0.0000 C   0  0
   -1.0642    0.8237    0.0000 C   0  0
   -2.3084    0.1292    0.0000 O   0  0
   -0.2497   -0.6143    0.0000 C   0  0
   -1.4933   -1.3192    0.0000 C   0  0
   -0.2285    0.8114    0.0000 C   0  0
   -1.4507    1.5528    0.0000 C   0  0
    0.1723    0.0883    0.0000 C   0  0
   -2.6292    2.2250    0.0000 N   0  0
   -1.8292    2.0125    0.0000 C   0  0
   -1.2504    2.5923    0.0000 C   0  0
   -2.2620    3.6085    0.0000 C   0  0
   -2.8504    3.0215    0.0000 C   0  0
   -5.8281    0.7482    0.0000 C   0  0
   -5.8293   -0.0834    0.0000 C   0  0
   -5.1104   -0.4962    0.0000 C   0  0
   -5.1122    1.1651    0.0000 N   0  0
   -3.5971    1.0105    0.0000 C   0  0
   -4.3926    0.7518    0.0000 C   0  0
   -4.3900   -0.0855    0.0000 C   0  0
   -3.5920   -0.3392    0.0000 N   0  0
   -3.1067    0.3423    0.0000 C   0  0
   -3.1714   -1.0625    0.0000 C   0  0
   -2.3500   -1.0478    0.0000 C   0  0
   -3.5848   -1.7718    0.0000 C   0  0
   -1.9265   -1.7686    0.0000 C   0  0
   -3.1656   -2.4927    0.0000 C   0  0
   -2.3341   -2.4953    0.0000 C   0  0
   -3.3448    1.8000    0.0000 C   0  0
   -3.9031    2.4155    0.0000 O   0  0
   -1.4708    3.4001    0.0000 N   0  0
   -0.5417    2.1834    0.0000 C   0  0
    0.1727    2.5960    0.0000 C   0  0
    0.8873    2.1837    0.0000 N   0  0
    0.1725    3.4210    0.0000 O   0  0
    1.6017    2.5964    0.0000 C   0  0
    2.3162    2.1841    0.0000 C   0  0
    3.0306    2.5968    0.0000 C   0  0
    3.7412    2.1827    0.0000 C   0  0
    4.4535    2.5919    0.0000 C   0  0
    4.4575    3.4173    0.0000 O   0  0
    3.7431    3.8318    0.0000 C   0  0
    3.0246    3.4209    0.0000 C   0  0
  1  2  2  0
  1  3  1  0
  1  4  1  0
  2  5  1  0
  2  6  1  0
  3  7  2  0
  3  8  1  0
  7  9  1  0
  5  9  2  0
 13 14  1  0
 21 22  1  0
 22 23  1  0
 23 19  2  0
 24 25  2  0
 24 26  1  0
 24 22  1  0
 25 27  1  0
 26 28  2  0
 27 29  2  0
 28 29  1  0
 18 15  2  0
 20 21  2  0
 16 17  2  0
 17 21  1  0
 15 16  1  0
 20 18  1  0
 19 20  1  0
 19 30  1  0
 23  4  1  0
 30 31  2  0
 30 10  1  0
 10 11  1  0
 12 32  1  0
 13 32  1  0
 10 14  1  0
 11 12  1  0
 12 33  1  0
 33 34  1  0
 34 35  1  0
 34 36  2  0
 35 37  1  0
 37 38  1  0
 38 39  1  0
 39 40  1  0
 39 44  1  0
 40 41  1  0
 41 42  1  0
 42 43  1  0
 43 44  1  0
M  END
>  <ID_NEW>
CPDRE1088

>  <pIC50>
7.721246399047171

$$$$

  SciTegic12180813542D

 31 35  0  0  0  0            999 V2000
    2.3111   -5.5667    0.0000 C   0  0
    2.3099   -6.3940    0.0000 C   0  0
    3.0248   -6.8069    0.0000 C   0  0
    3.0230   -5.1539    0.0000 C   0  0
    4.5297   -5.3044    0.0000 C   0  0
    3.7383   -5.5630    0.0000 C   0  0
    3.7409   -6.3962    0.0000 C   0  0
    4.5347   -6.6499    0.0000 N   0  0
    5.0201   -5.9726    0.0000 C   0  0
    4.7820   -4.5190    0.0000 C   0  0
    5.5884   -4.3448    0.0000 N   0  0
    4.2280   -3.9077    0.0000 O   0  0
    5.8451   -5.9679    0.0000 C   0  0
    4.7941   -7.4330    0.0000 C   0  0
    4.3180   -8.1034    0.0000 C   0  0
    4.8068   -8.7681    0.0000 C   0  0
    5.5900   -8.5087    0.0000 C   0  0
    5.5851   -7.6837    0.0000 C   0  0
    6.1417   -4.9596    0.0000 C   0  0
    6.9449   -4.7881    0.0000 C   0  0
    7.2015   -4.0036    0.0000 N   0  0
    6.6482   -3.3903    0.0000 C   0  0
    5.8385   -3.5615    0.0000 C   0  0
    6.2617   -6.6800    0.0000 C   0  0
    5.8514   -7.3960    0.0000 C   0  0
    6.2673   -8.1076    0.0000 C   0  0
    7.0932   -8.1034    0.0000 C   0  0
    7.5014   -7.3815    0.0000 C   0  0
    7.0832   -6.6729    0.0000 C   0  0
    7.4892   -5.9547    0.0000 C   0  0
    8.3264   -7.3739    0.0000 F   0  0
 17 18  1  0
 18 14  1  0
 11 19  1  0
  1  2  2  0
  2  3  1  0
  3  7  2  0
  6  4  2  0
 11 23  1  0
 19 20  1  0
 20 21  1  0
 21 22  1  0
 22 23  1  0
  4  1  1  0
  6  7  1  0
  5  6  1  0
  7  8  1  0
  8  9  1  0
  9  5  2  0
  5 10  1  0
 13 24  1  0
 10 11  1  0
 24 25  2  0
 10 12  2  0
 25 26  1  0
  9 13  1  0
 26 27  2  0
  8 14  1  0
 27 28  1  0
 14 15  1  0
 28 29  2  0
 29 24  1  0
 15 16  1  0
 29 30  1  0
 16 17  1  0
 28 31  1  0
M  END
>  <ID_NEW>
CPDRE1089

>  <pIC50>
7.698970004336018

$$$$

  SciTegic12180813472D

 32 36  0  0  0  0            999 V2000
    5.6390   -6.1736    0.0000 N   0  0
    6.1209   -5.5021    0.0000 C   0  0
    5.6311   -4.8364    0.0000 C   0  0
    5.8985   -6.9567    0.0000 C   0  0
    5.8815   -4.0503    0.0000 C   0  0
    6.6874   -3.8741    0.0000 O   0  0
    5.3469   -7.5683    0.0000 C   0  0
    5.6059   -8.3508    0.0000 C   0  0
    6.4146   -8.5183    0.0000 C   0  0
    6.9639   -7.8970    0.0000 C   0  0
    6.7021   -7.1169    0.0000 C   0  0
    5.3259   -3.4405    0.0000 N   0  0
    5.5797   -2.6532    0.0000 C   0  0
    5.0280   -2.0447    0.0000 C   0  0
    4.2208   -2.2169    0.0000 N   0  0
    3.9684   -3.0033    0.0000 C   0  0
    4.5230   -3.6175    0.0000 C   0  0
    6.9459   -5.4972    0.0000 O   0  0
    7.7708   -5.4958    0.0000 C   0  0
    8.1827   -6.2118    0.0000 C   0  0
    9.0068   -6.2108    0.0000 C   0  0
    9.4189   -5.4951    0.0000 C   0  0
    9.0008   -4.7790    0.0000 C   0  0
    8.1780   -4.7836    0.0000 C   0  0
    7.7700   -6.9262    0.0000 C   0  0
    4.8515   -5.9228    0.0000 C   0  0
    4.8499   -5.0986    0.0000 C   0  0
    4.1365   -4.6897    0.0000 C   0  0
    3.4242   -5.1038    0.0000 C   0  0
    3.4298   -5.9311    0.0000 C   0  0
    4.1437   -6.3363    0.0000 C   0  0
    2.7183   -6.3486    0.0000 O   0  0
 26  1  1  0
  1  2  1  0
  2  3  2  0
  3 27  1  0
  1  4  1  0
  3  5  1  0
  5  6  2  0
  4  7  2  0
  7  8  1  0
  8  9  2  0
  9 10  1  0
 10 11  2  0
 11  4  1  0
  5 12  1  0
 12 13  1  0
 12 17  1  0
 13 14  1  0
 14 15  1  0
 15 16  1  0
 16 17  1  0
  2 18  1  0
 18 19  1  0
 19 20  2  0
 20 21  1  0
 21 22  2  0
 22 23  1  0
 23 24  2  0
 24 19  1  0
 20 25  1  0
 26 27  2  0
 27 28  1  0
 28 29  2  0
 29 30  1  0
 30 31  2  0
 31 26  1  0
 30 32  1  0
M  END
>  <ID_NEW>
CPDRE1090

>  <pIC50>
7.67778070526608

$$$$

  SciTegic12180813492D

 32 36  0  0  0  0            999 V2000
    9.1152   -3.5083    0.0000 C   0  0
    9.1099   -4.3315    0.0000 C   0  0
    9.8190   -4.7458    0.0000 C   0  0
   10.5340   -4.3382    0.0000 C   0  0
   10.5353   -3.5118    0.0000 C   0  0
    9.8255   -3.1011    0.0000 C   0  0
    4.8986   -2.8999    0.0000 C   0  0
    4.8974   -3.7273    0.0000 N   0  0
    5.6122   -4.1401    0.0000 C   0  0
    5.6104   -2.4871    0.0000 C   0  0
    6.3258   -2.8963    0.0000 C   0  0
    6.3261   -3.7273    0.0000 C   0  0
    7.1165   -3.9839    0.0000 N   0  0
    7.6049   -3.3114    0.0000 C   0  0
    7.1161   -2.6393    0.0000 C   0  0
    7.3708   -1.8546    0.0000 C   0  0
    7.3717   -4.7685    0.0000 C   0  0
    6.8186   -1.2417    0.0000 O   0  0
    6.8176   -5.3787    0.0000 C   0  0
    7.0722   -6.1626    0.0000 C   0  0
    7.8800   -6.3346    0.0000 C   0  0
    8.4328   -5.7164    0.0000 C   0  0
    8.1752   -4.9348    0.0000 C   0  0
    8.1777   -1.6828    0.0000 N   0  0
    8.7272   -2.3001    0.0000 C   0  0
    9.5311   -2.1310    0.0000 C   0  0
    9.7899   -1.3473    0.0000 N   0  0
    9.2385   -0.7323    0.0000 C   0  0
    8.4282   -0.9011    0.0000 C   0  0
    8.4000   -3.0916    0.0000 C   0  0
    9.8208   -2.2750    0.0000 C   0  0
   11.1167   -2.9208    0.0000 F   0  0
  7  8  2  0
  8  9  1  0
  9 12  2  0
 11 10  2  0
 10  7  1  0
 11 12  1  0
 12 13  1  0
 13 14  1  0
 14 15  2  0
 15 11  1  0
 15 16  1  0
 13 17  1  0
 16 18  2  0
 17 19  2  0
 19 20  1  0
 20 21  2  0
 21 22  1  0
 22 23  2  0
 23 17  1  0
 16 24  1  0
 24 25  1  0
 24 29  1  0
 25 26  1  0
 26 27  1  0
 27 28  1  0
 28 29  1  0
  5  6  2  0
 14 30  1  0
 30  1  1  0
  6  1  1  0
  1  2  2  0
  3  4  2  0
  4  5  1  0
  6 31  1  0
  2  3  1  0
  5 32  1  0
M  END
>  <ID_NEW>
CPDRE1091

>  <pIC50>
7.67778070526608

$$$$

  SciTegic12180813582D

 43 47  0  0  0  0            999 V2000
   13.3625   -5.4875    0.0000 C   0  0
   13.1458   -6.2833    0.0000 C   0  0
   14.0750   -5.9000    0.0000 C   0  0
   13.7708   -4.7708    0.0000 C   0  0
   13.5541   -3.9708    0.0000 O   0  0
   14.5958   -4.7708    0.0000 N   0  0
    8.5582   -6.1167    0.0000 N   0  0
    9.3582   -6.3292    0.0000 C   0  0
    9.9370   -5.7494    0.0000 C   0  0
    8.9254   -4.7332    0.0000 C   0  0
    8.3370   -5.3202    0.0000 C   0  0
    5.3593   -7.5935    0.0000 C   0  0
    5.3581   -8.4251    0.0000 C   0  0
    6.0770   -8.8379    0.0000 C   0  0
    6.0752   -7.1766    0.0000 N   0  0
    7.5903   -7.3312    0.0000 C   0  0
    6.7948   -7.5899    0.0000 C   0  0
    6.7974   -8.4272    0.0000 C   0  0
    7.5954   -8.6809    0.0000 N   0  0
    8.0807   -7.9994    0.0000 C   0  0
    8.0160   -9.4042    0.0000 C   0  0
    8.8374   -9.3895    0.0000 C   0  0
    7.6026  -10.1135    0.0000 C   0  0
    9.2609  -10.1103    0.0000 C   0  0
    8.0218  -10.8344    0.0000 C   0  0
    8.8533  -10.8370    0.0000 C   0  0
    7.8426   -6.5417    0.0000 C   0  0
    7.2843   -5.9262    0.0000 O   0  0
    9.7166   -4.9416    0.0000 N   0  0
   10.6457   -5.3292    0.0000 C   0  0
   11.2291   -5.9125    0.0000 C   0  0
   11.2249   -6.7375    0.0000 O   0  0
    8.7916   -7.5792    0.0000 O   0  0
    9.5874   -7.7917    0.0000 C   0  0
    9.7989   -8.5889    0.0000 C   0  0
   10.5939   -8.8016    0.0000 C   0  0
   11.1768   -8.2183    0.0000 C   0  0
   10.9593   -7.4194    0.0000 C   0  0
   10.1647   -7.2105    0.0000 C   0  0
    9.9479   -6.4145    0.0000 C   0  0
    9.2150   -9.1717    0.0000 C   0  0
   11.9375   -5.4958    0.0000 N   0  0
   12.6500   -5.9042    0.0000 C   0  0
  1  3  1  0
  1  4  1  0
  4  5  2  0
  4  6  1  0
 27  7  1  0
  7  8  1  0
  9 29  1  0
 10 29  1  0
  7 11  1  0
  8  9  1  0
 20 33  1  0
 10 11  1  0
 33 34  1  0
 18 19  1  0
 34 35  2  0
 19 20  1  0
 35 36  1  0
 20 16  2  0
 36 37  2  0
 21 22  2  0
 37 38  1  0
 21 23  1  0
 38 39  2  0
 39 34  1  0
 21 19  1  0
 39 40  1  0
 22 24  1  0
 35 41  1  0
 23 25  2  0
 24 26  2  0
 25 26  1  0
 15 12  2  0
 17 18  2  0
 13 14  2  0
 31 42  1  0
 14 18  1  0
 12 13  1  0
  9 30  1  0
 17 15  1  0
 30 31  1  0
 16 17  1  0
 31 32  2  0
 16 27  1  0
 27 28  2  0
  1  2  1  0
 42 43  1  0
 43  1  1  0
M  END
>  <ID_NEW>
CPDRE1092

>  <pIC50>
7.67778070526608

$$$$

  -MTS-   10172316392D 0   0.00000     0.00000     0

 42 46  0  0  1  0  0  0  0  0999 V2000
    1.3440   -4.5960    0.0000 C   0  0  0  0  0  0  0  0  0  0  0  0
    1.3430   -5.4230    0.0000 C   0  0  0  0  0  0  0  0  0  0  0  0
    2.0580   -5.8360    0.0000 C   0  0  0  0  0  0  0  0  0  0  0  0
    2.7740   -5.4230    0.0000 C   0  0  0  0  0  0  0  0  0  0  0  0
    2.7720   -4.5920    0.0000 C   0  0  0  0  0  0  0  0  0  0  0  0
    2.0560   -4.1830    0.0000 C   0  0  0  0  0  0  0  0  0  0  0  0
    2.0540   -3.3580    0.0000 C   0  0  0  0  0  0  0  0  0  0  0  0
    0.6300   -4.1830    0.0000 F   0  0  0  0  0  0  0  0  0  0  0  0
    3.4850   -4.1770    0.0000 C   0  0  0  0  0  0  0  0  0  0  0  0
    4.2010   -4.5870    0.0000 C   0  0  0  0  0  0  0  0  0  0  0  0
    4.2890   -5.4060    0.0000 C   0  0  0  0  0  0  0  0  0  0  0  0
    4.9520   -4.2480    0.0000 C   0  0  0  0  0  0  0  0  0  0  0  0
    5.1200   -3.4400    0.0000 C   0  0  0  0  0  0  0  0  0  0  0  0
    5.9030   -3.1840    0.0000 C   0  0  0  0  0  0  0  0  0  0  0  0
    6.0710   -2.3770    0.0000 C   0  0  0  0  0  0  0  0  0  0  0  0
    5.4550   -1.8270    0.0000 C   0  0  0  0  0  0  0  0  0  0  0  0
    4.6680   -2.0890    0.0000 C   0  0  0  0  0  0  0  0  0  0  0  0
    4.5040   -2.8950    0.0000 C   0  0  0  0  0  0  0  0  0  0  0  0
    5.5060   -4.8590    0.0000 C   0  0  0  0  0  0  0  0  0  0  0  0
    5.0960   -5.5750    0.0000 N   0  0  0  0  0  0  0  0  0  0  0  0
    5.5080   -6.2840    0.0000 C   0  0  0  0  0  0  0  0  0  0  0  0
    6.3330   -6.2840    0.0000 C   0  0  0  0  0  0  0  0  0  0  0  0
    6.7430   -5.5680    0.0000 C   0  0  0  0  0  0  0  0  0  0  0  0
    6.3290   -4.8530    0.0000 C   0  0  0  0  0  0  0  0  0  0  0  0
    3.6780   -5.9600    0.0000 C   0  0  0  0  0  0  0  0  0  0  0  0
    2.8920   -5.7080    0.0000 O   0  0  0  0  0  0  0  0  0  0  0  0
    3.8520   -6.7670    0.0000 N   0  0  0  0  0  0  0  0  0  0  0  0
    3.2370   -7.3180    0.0000 C   0  0  0  0  0  0  0  0  0  0  0  0
    3.4090   -8.1220    0.0000 C   0  0  0  0  0  0  0  0  0  0  0  0
    4.1930   -8.3780    0.0000 N   0  0  0  0  0  0  0  0  0  0  0  0
    4.8070   -7.8250    0.0000 C   0  0  2  0  0  0  0  0  0  0  0  0
    4.6350   -7.0150    0.0000 C   0  0  0  0  0  0  0  0  0  0  0  0
    5.5910   -8.0800    0.0000 C   0  0  0  0  0  0  0  0  0  0  0  0
    6.1710   -7.4920    0.0000 C   0  0  0  0  0  0  0  0  0  0  0  0
    6.9690   -7.6990    0.0000 N   0  0  0  0  0  0  0  0  0  0  0  0
    5.9510   -6.6960    0.0000 O   0  0  0  0  0  0  0  0  0  0  0  0
    7.5480   -7.1120    0.0000 C   0  0  0  0  0  0  0  0  0  0  0  0
    8.3470   -7.3190    0.0000 C   0  0  0  0  0  0  0  0  0  0  0  0
    8.9260   -6.7310    0.0000 S   0  0  0  0  0  0  0  0  0  0  0  0
    9.7240   -6.9390    0.0000 C   0  0  0  0  0  0  0  0  0  0  0  0
    8.7060   -5.9360    0.0000 O   0  0  0  0  0  0  0  0  0  0  0  0
    9.3440   -7.4430    0.0000 O   0  0  0  0  0  0  0  0  0  0  0  0
 20 21  1  0  0  0  0
 21 22  2  0  0  0  0
 22 23  1  0  0  0  0
 23 24  2  0  0  0  0
 11 20  1  0  0  0  0
 11 25  1  0  0  0  0
 19 12  2  0  0  0  0
 25 26  2  0  0  0  0
 12 10  1  0  0  0  0
 25 27  1  0  0  0  0
 27 28  1  0  0  0  0
  6  1  1  0  0  0  0
 12 13  1  0  0  0  0
  1  2  2  0  0  0  0
 13 14  2  0  0  0  0
  6  7  1  0  0  0  0
 27 32  1  0  0  0  0
 28 29  1  0  0  0  0
 29 30  1  0  0  0  0
 30 31  1  0  0  0  0
 31 32  1  0  0  0  0
 14 15  1  0  0  0  0
  3  4  2  0  0  0  0
 15 16  2  0  0  0  0
  1  8  1  0  0  0  0
 16 17  1  0  0  0  0
 17 18  2  0  0  0  0
 18 13  1  0  0  0  0
 31 33  1  6  0  0  0
 19 20  1  0  0  0  0
 33 34  1  0  0  0  0
  5  9  1  0  0  0  0
 34 35  1  0  0  0  0
  4  5  1  0  0  0  0
 34 36  2  0  0  0  0
 35 37  1  0  0  0  0
  9 10  1  0  0  0  0
 37 38  1  0  0  0  0
 10 11  2  0  0  0  0
 38 39  1  0  0  0  0
  2  3  1  0  0  0  0
 39 40  1  0  0  0  0
  5  6  2  0  0  0  0
 39 41  2  0  0  0  0
 19 24  1  0  0  0  0
 39 42  2  0  0  0  0
M  END
>  <ID_NEW>
CPDRE1093

>  <pIC50>
7.67778070526608

$$$$

  SciTegic12180813492D

 33 37  0  0  0  0            999 V2000
    4.5167   -1.5250    0.0000 N   0  0
    4.7292   -0.7250    0.0000 C   0  0
    4.1458   -0.1442    0.0000 C   0  0
    3.3468   -0.3578    0.0000 N   0  0
    3.1343   -1.1578    0.0000 C   0  0
    3.7208   -1.7442    0.0000 C   0  0
    4.4770   -5.0044    0.0000 C   0  0
    3.7613   -5.4109    0.0000 C   0  0
    3.7565   -6.2320    0.0000 C   0  0
    4.4665   -6.6477    0.0000 C   0  0
    5.1830   -6.2362    0.0000 C   0  0
    5.1843   -5.4164    0.0000 C   0  0
    3.8110   -3.6995    0.0000 C   0  0
    4.0241   -2.9015    0.0000 C   0  0
    3.4403   -2.3200    0.0000 N   0  0
    2.6431   -2.5352    0.0000 C   0  0
    2.4330   -3.3372    0.0000 C   0  0
    3.0184   -3.9153    0.0000 C   0  0
    4.4834   -4.1833    0.0000 N   0  0
    5.1527   -3.7009    0.0000 C   0  0
    4.8959   -2.9126    0.0000 C   0  0
    4.4584   -7.4709    0.0000 F   0  0
    5.1083   -2.1125    0.0000 C   0  0
    5.9042   -1.8958    0.0000 O   0  0
    5.8625   -4.1125    0.0000 O   0  0
    6.7944   -4.6499    0.0000 C   0  0
    6.7891   -5.4731    0.0000 C   0  0
    7.4982   -5.8875    0.0000 C   0  0
    8.2131   -5.4798    0.0000 C   0  0
    8.2145   -4.6535    0.0000 C   0  0
    7.5047   -4.2428    0.0000 C   0  0
    7.5000   -3.4166    0.0000 C   0  0
    7.4917   -6.7125    0.0000 F   0  0
 23 24  2  0
 23  1  1  0
  4  5  1  0
  5  6  1  0
  1  2  1  0
  1  6  1  0
  2  3  1  0
  3  4  1  0
 20 25  1  0
 15 16  2  0
  8  9  1  0
 16 17  1  0
 11 12  2  0
 17 18  2  0
 18 13  1  0
 12  7  1  0
  7  8  2  0
 26 27  2  0
 27 28  1  0
 28 29  2  0
 29 30  1  0
 30 31  2  0
 31 26  1  0
 31 32  1  0
 28 33  1  0
 25 26  1  0
 20 21  2  0
  9 10  2  0
 19 20  1  0
 21 14  1  0
 13 19  1  0
 13 14  2  0
 19  7  1  0
 10 22  1  0
 14 15  1  0
 21 23  1  0
 10 11  1  0
M  END
>  <ID_NEW>
CPDRE1094

>  <pIC50>
7.6575773191777925

$$$$

  SciTegic12180813522D

 32 36  0  0  0  0            999 V2000
   -5.8306    1.6625    0.0000 C   0  0
   -5.8318    0.8351    0.0000 C   0  0
   -5.1169    0.4223    0.0000 C   0  0
   -5.1187    2.0753    0.0000 N   0  0
   -3.6134    0.5798    0.0000 N   0  0
   -3.1257    1.2515    0.0000 C   0  0
   -3.6139    1.9230    0.0000 C   0  0
   -4.4034    1.6661    0.0000 C   0  0
   -4.4031    0.8360    0.0000 C   0  0
   -3.3582   -0.2048    0.0000 C   0  0
   -3.9125   -0.8165    0.0000 C   0  0
   -3.6579   -1.6004    0.0000 C   0  0
   -2.8501   -1.7723    0.0000 C   0  0
   -2.2974   -1.1540    0.0000 C   0  0
   -2.5550   -0.3725    0.0000 C   0  0
   -3.3593    2.7077    0.0000 C   0  0
   -2.5524    2.8795    0.0000 N   0  0
   -3.9115    3.3206    0.0000 O   0  0
   -2.0021    2.2630    0.0000 C   0  0
   -1.1983    2.4321    0.0000 C   0  0
   -0.9395    3.2159    0.0000 N   0  0
   -1.4910    3.8308    0.0000 C   0  0
   -2.3012    3.6620    0.0000 C   0  0
   -2.3007    1.2518    0.0000 C   0  0
   -1.7208    0.6708    0.0000 C   0  0
   -1.9370   -0.1222    0.0000 C   0  0
   -1.3580   -0.7029    0.0000 C   0  0
   -0.5639   -0.4914    0.0000 C   0  0
   -0.3521    0.3060    0.0000 C   0  0
   -0.9327    0.8833    0.0000 C   0  0
   -2.6542    0.2916    0.0000 F   0  0
   -0.7209    1.6807    0.0000 C   0  0
 14 15  2  0
 15 10  1  0
  7 16  1  0
 16 17  1  0
 16 18  2  0
 17 19  1  0
 17 23  1  0
 19 20  1  0
 20 21  1  0
 21 22  1  0
 22 23  1  0
  6 24  1  0
 24 25  1  0
 25 26  2  0
 26 27  1  0
 27 28  2  0
 28 29  1  0
 29 30  2  0
 30 25  1  0
 26 31  1  0
  1  2  2  0
  2  3  1  0
  3  9  2  0
  8  4  2  0
  4  1  1  0
  8  9  1  0
  6  7  2  0
  5  6  1  0
  7  8  1  0
  9  5  1  0
  5 10  1  0
 10 11  2  0
 11 12  1  0
 12 13  2  0
 13 14  1  0
 30 32  1  0
M  END
>  <ID_NEW>
CPDRE1095

>  <pIC50>
7.6575773191777925

$$$$

  SciTegic12180813512D

 33 37  0  0  0  0            999 V2000
    7.8194   -3.6541    0.0000 C   0  0
    7.8141   -4.4773    0.0000 C   0  0
    8.5232   -4.8917    0.0000 C   0  0
    9.2381   -4.4840    0.0000 C   0  0
    9.2395   -3.6577    0.0000 C   0  0
    8.5297   -3.2470    0.0000 C   0  0
    5.5667   -1.6708    0.0000 N   0  0
    5.5625   -0.8458    0.0000 C   0  0
    4.8499   -0.4392    0.0000 C   0  0
    4.1369   -0.8530    0.0000 N   0  0
    4.1411   -1.6780    0.0000 C   0  0
    4.8583   -2.0892    0.0000 C   0  0
    5.9282   -5.1214    0.0000 C   0  0
    5.3411   -5.7027    0.0000 C   0  0
    5.5515   -6.4996    0.0000 C   0  0
    6.3484   -6.7165    0.0000 C   0  0
    6.9348   -6.1301    0.0000 C   0  0
    6.7214   -5.3354    0.0000 C   0  0
    5.7506   -2.9784    0.0000 C   0  0
    5.7316   -4.3238    0.0000 N   0  0
    6.2289   -3.6553    0.0000 C   0  0
    4.9424   -4.0560    0.0000 C   0  0
    4.9581   -3.2253    0.0000 C   0  0
    4.2477   -2.7983    0.0000 C   0  0
    3.5211   -3.2006    0.0000 N   0  0
    3.5094   -4.0346    0.0000 C   0  0
    4.2205   -4.4579    0.0000 C   0  0
    2.7821   -4.4296    0.0000 O   0  0
    6.1583   -2.2583    0.0000 C   0  0
    6.8667   -1.8416    0.0000 O   0  0
    7.0208   -3.4375    0.0000 O   0  0
    8.5250   -2.4208    0.0000 C   0  0
    8.5167   -5.7167    0.0000 F   0  0
  1  2  2  0
  3  4  2  0
  4  5  1  0
 17 18  2  0
 18 13  1  0
 19 23  1  0
 22 20  1  0
 20 21  1  0
 21 19  2  0
 22 23  2  0
 23 24  1  0
 24 25  2  0
 25 26  1  0
 26 27  2  0
 27 22  1  0
 26 28  1  0
 20 13  1  0
 19 29  1  0
 13 14  2  0
 15 16  2  0
 16 17  1  0
 29 30  2  0
 14 15  1  0
 29  7  1  0
  8  9  1  0
  9 10  1  0
 10 11  1  0
 11 12  1  0
  7  8  1  0
  7 12  1  0
  2  3  1  0
 21 31  1  0
 31  1  1  0
  5  6  2  0
  6 32  1  0
  6  1  1  0
  3 33  1  0
M  END
>  <ID_NEW>
CPDRE1096

>  <pIC50>
7.638272163982406

$$$$

  SciTegic12180813452D

 34 38  0  0  0  0            999 V2000
   -0.2693   -0.5445    0.0000 N   0  0
    0.2293    0.1479    0.0000 C   0  0
   -0.2772    0.8302    0.0000 C   0  0
   -0.0014   -1.3484    0.0000 C   0  0
   -0.0184    1.6413    0.0000 C   0  0
    0.8083    1.8217    0.0000 O   0  0
   -0.5697   -1.9767    0.0000 C   0  0
   -0.3024   -2.7842    0.0000 C   0  0
    0.5313   -2.9558    0.0000 C   0  0
    1.0931   -2.3179    0.0000 C   0  0
    0.8272   -1.5128    0.0000 C   0  0
   -0.5907    2.2678    0.0000 N   0  0
   -0.3286    3.0759    0.0000 C   0  0
   -0.8969    3.7053    0.0000 C   0  0
   -1.7291    3.5247    0.0000 N   0  0
   -1.9857    2.7175    0.0000 C   0  0
   -1.4186    2.0866    0.0000 C   0  0
    1.0751    0.1528    0.0000 O   0  0
    1.9250    0.1542    0.0000 C   0  0
    2.3494   -0.5827    0.0000 C   0  0
    3.1985   -0.5817    0.0000 C   0  0
    3.6190    0.1549    0.0000 C   0  0
    3.1925    0.8918    0.0000 C   0  0
    2.3447    0.8872    0.0000 C   0  0
    1.9242   -1.3179    0.0000 C   0  0
   -1.0776   -0.2853    0.0000 C   0  0
   -1.0792    0.5639    0.0000 C   0  0
   -1.8134    0.9811    0.0000 C   0  0
   -2.5466    0.5587    0.0000 C   0  0
   -2.5410   -0.2936    0.0000 C   0  0
   -1.8062   -0.7113    0.0000 C   0  0
    3.6027    1.6076    0.0000 F   0  0
   -3.2527   -0.7108    0.0000 O   0  0
   -3.9699   -0.3031    0.0000 C   0  0
  5  6  2  0
  4  7  2  0
  7  8  1  0
  8  9  2  0
  9 10  1  0
 10 11  2  0
 11  4  1  0
  5 12  1  0
 12 13  1  0
 12 17  1  0
 13 14  1  0
 14 15  1  0
 15 16  1  0
 16 17  1  0
  2 18  1  0
 18 19  1  0
 19 20  2  0
 20 21  1  0
 21 22  2  0
 22 23  1  0
 23 32  1  0
 30 33  1  0
 33 34  1  0
 23 24  2  0
 24 19  1  0
 20 25  1  0
 26 27  2  0
 27 28  1  0
 28 29  2  0
 29 30  1  0
 30 31  2  0
 31 26  1  0
 26  1  1  0
  1  2  1  0
  2  3  2  0
  3 27  1  0
  1  4  1  0
  3  5  1  0
M  END
>  <ID_NEW>
CPDRE1097

>  <pIC50>
7.619788758288393

$$$$

  SciTegic12180813452D

 32 36  0  0  0  0            999 V2000
    3.1426   -3.2620    0.0000 C   0  0
    2.3440   -3.4729    0.0000 C   0  0
    2.1289   -4.2684    0.0000 C   0  0
    2.7113   -4.8537    0.0000 C   0  0
    3.5119   -4.6381    0.0000 C   0  0
    3.7233   -3.8430    0.0000 C   0  0
    4.9378   -3.0799    0.0000 C   0  0
    4.5211   -3.7903    0.0000 C   0  0
    4.9278   -4.5042    0.0000 C   0  0
    5.7512   -4.5091    0.0000 C   0  0
    6.1661   -3.7940    0.0000 C   0  0
    5.7569   -3.0829    0.0000 C   0  0
    4.9417   -0.7916    0.0000 N   0  0
    5.1542   -1.5875    0.0000 C   0  0
    5.9453   -1.8002    0.0000 C   0  0
    6.5294   -1.2203    0.0000 N   0  0
    6.3169   -0.4244    0.0000 C   0  0
    5.5203   -0.2085    0.0000 C   0  0
    2.4776   -1.9536    0.0000 C   0  0
    2.6908   -1.1556    0.0000 C   0  0
    2.1069   -0.5741    0.0000 C   0  0
    1.3097   -0.7893    0.0000 C   0  0
    1.0997   -1.5913    0.0000 N   0  0
    1.6850   -2.1694    0.0000 C   0  0
    3.1500   -2.4374    0.0000 N   0  0
    3.8193   -1.9550    0.0000 C   0  0
    3.5625   -1.1667    0.0000 C   0  0
    4.5292   -2.3666    0.0000 O   0  0
    4.1459   -0.5791    0.0000 C   0  0
    3.9292    0.2209    0.0000 O   0  0
    6.1625   -2.3625    0.0000 C   0  0
    4.5084   -5.2166    0.0000 F   0  0
 12  7  1  0
 13 14  1  0
 26 27  2  0
  6  1  1  0
 25 26  1  0
 27 20  1  0
 19 25  1  0
  1  2  2  0
 26 28  1  0
 28  7  1  0
 25  1  1  0
  3  4  2  0
 27 29  1  0
  7  8  2  0
 29 30  2  0
 29 13  1  0
  8  9  1  0
 12 31  1  0
 13 18  1  0
  9 32  1  0
 14 15  1  0
 15 16  1  0
 16 17  1  0
 17 18  1  0
  4  5  1  0
  9 10  2  0
 19 20  2  0
  2  3  1  0
 20 21  1  0
 10 11  1  0
 21 22  2  0
  5  6  2  0
 22 23  1  0
 11 12  2  0
 23 24  2  0
 24 19  1  0
M  END
>  <ID_NEW>
CPDRE1098

>  <pIC50>
7.619788758288393

$$$$

  SciTegic12180813512D

 42 47  0  0  0  0            999 V2000
   -1.5234   -0.3370    0.0000 O   0  0
   -2.2252    0.0966    0.0000 C   0  0
   -2.9517   -0.2944    0.0000 C   0  0
   -3.6535    0.1393    0.0000 O   0  0
   -4.3800   -0.2517    0.0000 C   0  0
   -5.0805    0.1862    0.0000 C   0  0
   -5.8065   -0.2041    0.0000 C   0  0
   -5.8316   -1.0296    0.0000 C   0  0
   -5.1247   -1.4632    0.0000 C   0  0
   -4.4016   -1.0705    0.0000 C   0  0
    3.4247    0.6903    0.0000 C   0  0
    4.0146    1.2529    0.0000 C   0  0
    3.6094   -0.1001    0.0000 C   0  0
    2.6095    0.9133    0.0000 C   0  0
    4.7983    1.0339    0.0000 C   0  0
    3.8304    2.0777    0.0000 C   0  0
    4.3905   -0.3224    0.0000 C   0  0
    4.9804    0.2403    0.0000 C   0  0
    5.4004    1.6081    0.0000 F   0  0
   -0.2886    3.4521    0.0000 N   0  0
   -0.3300    2.6272    0.0000 C   0  0
    0.4561    3.8329    0.0000 C   0  0
    0.3646    2.1746    0.0000 C   0  0
    1.1521    3.3850    0.0000 C   0  0
    1.1093    2.5554    0.0000 N   0  0
   -0.8074    0.9023    0.0000 C   0  0
   -0.8086    0.0749    0.0000 C   0  0
   -0.0938   -0.3379    0.0000 C   0  0
   -0.0956    1.3151    0.0000 C   0  0
    1.4111    1.1646    0.0000 C   0  0
    0.6198    0.9059    0.0000 C   0  0
    0.6224    0.0728    0.0000 C   0  0
    1.4162   -0.1809    0.0000 N   0  0
    1.9015    0.4964    0.0000 C   0  0
    1.8368   -0.9000    0.0000 C   0  0
    2.6541   -0.8853    0.0000 C   0  0
    1.4234   -1.6052    0.0000 C   0  0
    3.0734   -1.6020    0.0000 C   0  0
    1.8426   -2.3219    0.0000 C   0  0
    2.6700   -2.3245    0.0000 C   0  0
    1.6634    1.9500    0.0000 C   0  0
    2.4698    2.1242    0.0000 O   0  0
  7  8  2  0
  8  9  1  0
  4  5  1  0
  9 10  2  0
 10  5  1  0
  2  3  1  0
  5  6  2  0
  1  2  1  0
  6  7  1  0
  3  4  1  0
 12 16  1  0
 13 17  2  0
 15 18  2  0
 15 19  1  0
 17 18  1  0
 11 12  2  0
 11 13  1  0
 11 14  1  0
 12 15  1  0
 21 23  1  0
 22 24  1  0
 23 25  1  0
 24 25  1  0
 20 21  1  0
 20 22  1  0
 32 33  1  0
 33 34  1  0
 34 30  2  0
 35 36  1  0
 35 37  2  0
 35 33  1  0
 36 38  2  0
 37 39  1  0
 38 40  1  0
 39 40  2  0
 29 26  2  0
 31 32  2  0
 27 28  2  0
 28 32  1  0
 26 27  1  0
 31 29  1  0
 30 31  1  0
 30 41  1  0
 41 42  2  0
 27  1  1  0
 41 25  1  0
 34 14  1  0
M  END
>  <ID_NEW>
CPDRE1099

>  <pIC50>
7.619788758288393

$$$$

  SciTegic12180813452D

 37 41  0  0  0  0            999 V2000
    1.2907   -0.7711    0.0000 N   0  0
    1.3993    0.0446    0.0000 C   0  0
    0.7453    0.5488    0.0000 C   0  0
   -0.0173    0.2373    0.0000 N   0  0
   -0.1258   -0.5827    0.0000 C   0  0
    0.5240   -1.0869    0.0000 C   0  0
   -0.3816   -2.3652    0.0000 C   0  0
   -0.3772   -3.1902    0.0000 C   0  0
    0.3386   -3.5952    0.0000 C   0  0
    0.3297   -1.9452    0.0000 C   0  0
    1.0497   -2.3545    0.0000 C   0  0
    1.0541   -3.1794    0.0000 C   0  0
    1.8376   -3.4306    0.0000 N   0  0
    2.3206   -2.7620    0.0000 C   0  0
    1.8319   -2.0953    0.0000 C   0  0
    2.0968   -4.2128    0.0000 C   0  0
    1.5495   -4.8291    0.0000 C   0  0
    1.8087   -5.6113    0.0000 C   0  0
    2.6194   -5.7815    0.0000 C   0  0
    3.1667   -5.1651    0.0000 C   0  0
    2.9075   -4.3829    0.0000 C   0  0
    1.9405   -1.2753    0.0000 C   0  0
    2.7072   -0.9638    0.0000 O   0  0
    3.4548   -3.7666    0.0000 O   0  0
    4.2237   -4.0705    0.0000 C   0  0
    4.7710   -3.4501    0.0000 C   0  0
    5.5358   -3.7581    0.0000 C   0  0
    6.0873   -3.1418    0.0000 O   0  0
    6.8938   -3.3077    0.0000 C   0  0
    4.3667   -2.1770    0.0000 C   0  0
    3.5418   -2.1814    0.0000 C   0  0
    4.7760   -1.4612    0.0000 C   0  0
    4.7826   -2.8884    0.0000 C   0  0
    3.1260   -1.4701    0.0000 C   0  0
    3.1327   -2.8973    0.0000 O   0  0
    4.3602   -0.7498    0.0000 C   0  0
    3.5352   -0.7501    0.0000 C   0  0
  1  6  1  0
 17 18  1  0
 18 19  2  0
 19 20  1  0
 20 21  2  0
 21 16  1  0
 15 22  1  0
 30 31  2  0
 30 32  1  0
 30 33  1  0
 31 34  1  0
 31 35  1  0
 32 36  2  0
 34 37  2  0
 36 37  1  0
 14 35  1  0
 22 23  2  0
  7  8  2  0
  8  9  1  0
  9 12  2  0
 21 24  1  0
 25 26  1  0
 26 27  1  0
 27 28  1  0
 28 29  1  0
 24 25  1  0
 11 10  2  0
 10  7  1  0
 11 12  1  0
 12 13  1  0
 13 14  1  0
 14 15  2  0
 15 11  1  0
 13 16  1  0
 16 17  2  0
 22  1  1  0
  2  3  1  0
  3  4  1  0
  4  5  1  0
  5  6  1  0
  1  2  1  0
M  END
>  <ID_NEW>
CPDRE1100

>  <pIC50>
7.619788758288393

$$$$

  SciTegic12180813522D

 33 37  0  0  0  0            999 V2000
   -0.1675   -2.9828    0.0000 C   0  0
   -0.8855   -2.5720    0.0000 C   0  0
   -0.8856   -1.7415    0.0000 C   0  0
   -0.1717   -1.3298    0.0000 N   0  0
    1.3213   -1.4823    0.0000 C   0  0
    1.8111   -2.1453    0.0000 C   0  0
    1.3317   -2.8159    0.0000 N   0  0
    0.5458   -2.5673    0.0000 C   0  0
    0.5393   -1.7431    0.0000 C   0  0
    1.5927   -3.5985    0.0000 C   0  0
    1.0437   -4.2121    0.0000 C   0  0
    1.3041   -4.9941    0.0000 C   0  0
    2.1132   -5.1600    0.0000 C   0  0
    2.6613   -4.5376    0.0000 C   0  0
    2.3979   -3.7580    0.0000 C   0  0
    2.6333   -2.1416    0.0000 O   0  0
    1.5701   -0.6957    0.0000 C   0  0
    2.3757   -0.5178    0.0000 N   0  0
    2.3753   -5.9423    0.0000 F   0  0
    1.0133   -0.0870    0.0000 O   0  0
    2.9333   -1.1315    0.0000 C   0  0
    3.7359   -0.9563    0.0000 C   0  0
    3.9888   -0.1707    0.0000 N   0  0
    3.4327    0.4401    0.0000 C   0  0
    2.6237    0.2652    0.0000 C   0  0
    3.3458   -2.5541    0.0000 C   0  0
    3.3420   -3.3785    0.0000 C   0  0
    4.0537   -3.7909    0.0000 C   0  0
    4.7682   -3.3801    0.0000 C   0  0
    4.7665   -2.5525    0.0000 C   0  0
    4.0543   -2.1438    0.0000 C   0  0
    2.6263   -3.7888    0.0000 C   0  0
    4.0526   -1.3188    0.0000 C   0  0
  2  3  1  0
  3  4  2  0
  4  9  1  0
  8  9  2  0
  6  7  1  0
  5  6  2  0
  7  8  1  0
 13 19  1  0
  9  5  1  0
 17 20  2  0
 18 21  1  0
  7 10  1  0
 10 11  2  0
 11 12  1  0
 12 13  2  0
 13 14  1  0
 18 25  1  0
 21 22  1  0
 22 23  1  0
 23 24  1  0
 24 25  1  0
 14 15  2  0
 15 10  1  0
  6 16  1  0
  5 17  1  0
 17 18  1  0
  8  1  1  0
  1  2  2  0
 16 26  1  0
 26 27  2  0
 27 28  1  0
 28 29  2  0
 29 30  1  0
 30 31  2  0
 31 26  1  0
 27 32  1  0
 31 33  1  0
M  END
>  <ID_NEW>
CPDRE1101

>  <pIC50>
7.619788758288393

$$$$

  SciTegic12180814002D

 43 48  0  0  0  0            999 V2000
    9.1458   -5.8333    0.0000 C   0  0
    9.1417   -6.6583    0.0000 C   0  0
    9.8501   -7.0721    0.0000 C   0  0
   10.5673   -6.6655    0.0000 O   0  0
   10.5714   -5.8405    0.0000 C   0  0
    9.8585   -5.4221    0.0000 C   0  0
    5.5869   -5.4345    0.0000 C   0  0
    5.7783   -4.6308    0.0000 N   0  0
    4.2019   -5.1090    0.0000 N   0  0
    4.8030   -5.6722    0.0000 C   0  0
    5.1750   -4.0703    0.0000 C   0  0
    4.3847   -4.3082    0.0000 C   0  0
    3.7781   -8.7339    0.0000 C   0  0
    3.1910   -9.3152    0.0000 C   0  0
    3.4014  -10.1121    0.0000 C   0  0
    4.1983  -10.3290    0.0000 C   0  0
    4.7847   -9.7426    0.0000 C   0  0
    4.5713   -8.9479    0.0000 C   0  0
    3.6005   -6.5909    0.0000 C   0  0
    3.5815   -7.9363    0.0000 N   0  0
    4.0788   -7.2678    0.0000 C   0  0
    3.5957   -5.7624    0.0000 C   0  0
    3.0041   -5.1707    0.0000 O   0  0
    4.8708   -7.0499    0.0000 O   0  0
    5.5833   -7.4624    0.0000 C   0  0
    5.5795   -8.2868    0.0000 C   0  0
    6.2912   -8.6992    0.0000 C   0  0
    7.0057   -8.2883    0.0000 C   0  0
    7.0040   -7.4608    0.0000 C   0  0
    6.2918   -7.0521    0.0000 C   0  0
    6.2875   -6.2249    0.0000 C   0  0
    6.2959   -5.8458    0.0000 C   0  0
    7.0084   -5.4291    0.0000 C   0  0
    7.0042   -4.6041    0.0000 O   0  0
    7.7209   -5.8416    0.0000 N   0  0
    8.4333   -5.4208    0.0000 C   0  0
    4.8625   -8.6916    0.0000 C   0  0
    2.7944   -7.6704    0.0000 C   0  0
    2.8080   -6.8378    0.0000 C   0  0
    2.0949   -6.4115    0.0000 N   0  0
    1.3676   -6.8167    0.0000 C   0  0
    1.3579   -7.6526    0.0000 C   0  0
    2.0717   -8.0751    0.0000 C   0  0
  9 10  1  0
  9 12  1  0
 10  7  1  0
 19 39  1  0
 38 20  1  0
 20 21  1  0
 21 19  2  0
 20 13  1  0
 13 14  1  0
 15 16  1  0
 16 17  1  0
 14 15  1  0
 19 22  1  0
 17 18  1  0
 18 13  1  0
 22 23  2  0
 21 24  1  0
 24 25  1  0
 25 26  2  0
 26 27  1  0
 27 28  2  0
  7  8  1  0
 28 29  1  0
  8 11  1  0
 29 30  2  0
 30 25  1  0
 11 12  1  0
 30 31  1  0
 22  9  1  0
  7 32  1  0
 32 33  1  0
 33 34  2  0
 33 35  1  0
  5  6  1  0
 35 36  1  0
 36  1  1  0
 26 37  1  0
  1  2  1  0
  1  6  1  0
 38 39  2  0
  2  3  1  0
 39 40  1  0
  3  4  1  0
 40 41  2  0
  4  5  1  0
 41 42  1  0
 42 43  2  0
 43 38  1  0
M  END
>  <ID_NEW>
CPDRE1102

>  <pIC50>
7.602059991327962

$$$$

  -MTS-   10172316392D 0   0.00000     0.00000     0

 41 45  0  0  1  0  0  0  0  0999 V2000
    0.4290   -2.1120    0.0000 C   0  0  0  0  0  0  0  0  0  0  0  0
    0.4290   -2.9370    0.0000 C   0  0  0  0  0  0  0  0  0  0  0  0
    1.1410   -3.3460    0.0000 C   0  0  0  0  0  0  0  0  0  0  0  0
    1.1410   -1.6960    0.0000 C   0  0  0  0  0  0  0  0  0  0  0  0
    1.8530   -2.1120    0.0000 N   0  0  0  0  0  0  0  0  0  0  0  0
    1.8530   -2.9340    0.0000 C   0  0  0  0  0  0  0  0  0  0  0  0
    2.6340   -3.1880    0.0000 C   0  0  0  0  0  0  0  0  0  0  0  0
    3.1170   -2.5230    0.0000 C   0  0  0  0  0  0  0  0  0  0  0  0
    2.6340   -1.8590    0.0000 C   0  0  0  0  0  0  0  0  0  0  0  0
    2.8890   -3.9720    0.0000 C   0  0  0  0  0  0  0  0  0  0  0  0
    3.9420   -2.5230    0.0000 C   0  0  0  0  0  0  0  0  0  0  0  0
    4.3550   -3.2380    0.0000 C   0  0  0  0  0  0  0  0  0  0  0  0
    2.3340   -4.5820    0.0000 C   0  0  0  0  0  0  0  0  0  0  0  0
    2.5880   -5.3660    0.0000 C   0  0  0  0  0  0  0  0  0  0  0  0
    3.3960   -5.5380    0.0000 C   0  0  0  0  0  0  0  0  0  0  0  0
    3.9490   -4.9200    0.0000 C   0  0  0  0  0  0  0  0  0  0  0  0
    3.6920   -4.1390    0.0000 C   0  0  0  0  0  0  0  0  0  0  0  0
    3.9390   -3.9510    0.0000 C   0  0  0  0  0  0  0  0  0  0  0  0
    4.3510   -4.6650    0.0000 C   0  0  0  0  0  0  0  0  0  0  0  0
    5.1770   -4.6650    0.0000 C   0  0  0  0  0  0  0  0  0  0  0  0
    5.5890   -3.9460    0.0000 C   0  0  0  0  0  0  0  0  0  0  0  0
    5.1750   -3.2350    0.0000 C   0  0  0  0  0  0  0  0  0  0  0  0
    5.5850   -2.5190    0.0000 C   0  0  0  0  0  0  0  0  0  0  0  0
    6.4140   -3.9430    0.0000 F   0  0  0  0  0  0  0  0  0  0  0  0
    2.8890   -1.0740    0.0000 C   0  0  0  0  0  0  0  0  0  0  0  0
    3.6960   -0.9020    0.0000 N   0  0  0  0  0  0  0  0  0  0  0  0
    2.3370   -0.4610    0.0000 O   0  0  0  0  0  0  0  0  0  0  0  0
    4.2480   -1.5190    0.0000 C   0  0  0  0  0  0  0  0  0  0  0  0
    5.0520   -1.3500    0.0000 C   0  0  1  0  0  0  0  0  0  0  0  0
    5.3110   -0.5670    0.0000 N   0  0  0  0  0  0  0  0  0  0  0  0
    4.7600    0.0480    0.0000 C   0  0  0  0  0  0  0  0  0  0  0  0
    3.9500   -0.1200    0.0000 C   0  0  0  0  0  0  0  0  0  0  0  0
    5.4580   -2.0620    0.0000 C   0  0  0  0  0  0  0  0  0  0  0  0
    6.2540   -1.8460    0.0000 C   0  0  0  0  0  0  0  0  0  0  0  0
    6.8370   -2.4290    0.0000 N   0  0  0  0  0  0  0  0  0  0  0  0
    6.4670   -1.0460    0.0000 O   0  0  0  0  0  0  0  0  0  0  0  0
    7.6330   -2.2120    0.0000 C   0  0  0  0  0  0  0  0  0  0  0  0
    8.2170   -2.7960    0.0000 C   0  0  0  0  0  0  0  0  0  0  0  0
    9.0120   -2.5790    0.0000 C   0  0  0  0  0  0  0  0  0  0  0  0
    9.5980   -3.1600    0.0000 O   0  0  0  0  0  0  0  0  0  0  0  0
    9.2230   -1.7810    0.0000 O   0  0  0  0  0  0  0  0  0  0  0  0
  1  4  2  0  0  0  0
 13 14  1  0  0  0  0
  2  3  2  0  0  0  0
 26 32  1  0  0  0  0
 28 29  1  0  0  0  0
 29 30  1  0  0  0  0
 30 31  1  0  0  0  0
 31 32  1  0  0  0  0
 14 15  2  0  0  0  0
  3  6  1  0  0  0  0
 15 16  1  0  0  0  0
  6  7  2  0  0  0  0
 16 17  2  0  0  0  0
 17 10  1  0  0  0  0
  7  8  1  0  0  0  0
 12 18  2  0  0  0  0
  8  9  2  0  0  0  0
 18 19  1  0  0  0  0
  9  5  1  0  0  0  0
 19 20  2  0  0  0  0
  5  4  1  0  0  0  0
 29 33  1  1  0  0  0
 20 21  1  0  0  0  0
 33 34  1  0  0  0  0
  7 10  1  0  0  0  0
 34 35  1  0  0  0  0
 21 22  2  0  0  0  0
 34 36  2  0  0  0  0
 22 12  1  0  0  0  0
  5  6  1  0  0  0  0
 22 23  1  0  0  0  0
  8 11  1  0  0  0  0
 21 24  1  0  0  0  0
  9 25  1  0  0  0  0
 11 12  1  0  0  0  0
 35 37  1  0  0  0  0
 25 26  1  0  0  0  0
 37 38  1  0  0  0  0
  1  2  1  0  0  0  0
 38 39  1  0  0  0  0
 25 27  2  0  0  0  0
 39 40  1  0  0  0  0
 26 28  1  0  0  0  0
 39 41  2  0  0  0  0
 10 13  2  0  0  0  0
M  END
>  <ID_NEW>
CPDRE1103

>  <pIC50>
7.585026652029182

$$$$

  SciTegic12180813452D

 32 36  0  0  0  0            999 V2000
    3.1426   -3.2620    0.0000 C   0  0
    2.3440   -3.4729    0.0000 C   0  0
    2.1289   -4.2684    0.0000 C   0  0
    2.7113   -4.8537    0.0000 C   0  0
    3.5119   -4.6381    0.0000 C   0  0
    3.7233   -3.8430    0.0000 C   0  0
    4.9378   -3.0799    0.0000 C   0  0
    4.5211   -3.7903    0.0000 C   0  0
    4.9278   -4.5042    0.0000 C   0  0
    5.7512   -4.5091    0.0000 C   0  0
    6.1661   -3.7940    0.0000 C   0  0
    5.7569   -3.0829    0.0000 C   0  0
    4.9417   -0.7916    0.0000 N   0  0
    5.1542   -1.5875    0.0000 C   0  0
    5.9453   -1.8002    0.0000 C   0  0
    6.5294   -1.2203    0.0000 N   0  0
    6.3169   -0.4244    0.0000 C   0  0
    5.5203   -0.2085    0.0000 C   0  0
    2.4776   -1.9536    0.0000 C   0  0
    2.6908   -1.1556    0.0000 C   0  0
    2.1069   -0.5741    0.0000 C   0  0
    1.3097   -0.7893    0.0000 C   0  0
    1.0997   -1.5913    0.0000 N   0  0
    1.6850   -2.1694    0.0000 C   0  0
    3.1500   -2.4374    0.0000 N   0  0
    3.8193   -1.9550    0.0000 C   0  0
    3.5625   -1.1667    0.0000 C   0  0
    4.5292   -2.3666    0.0000 O   0  0
    4.1459   -0.5791    0.0000 C   0  0
    3.9292    0.2209    0.0000 O   0  0
    6.1625   -2.3625    0.0000 C   0  0
    4.5084   -5.2166    0.0000 F   0  0
 12  7  1  0
 13 14  1  0
 26 27  2  0
  6  1  1  0
 25 26  1  0
 27 20  1  0
 19 25  1  0
  1  2  2  0
 26 28  1  0
 28  7  1  0
 25  1  1  0
  3  4  2  0
 27 29  1  0
  7  8  2  0
 29 30  2  0
 29 13  1  0
  8  9  1  0
 12 31  1  0
 13 18  1  0
  9 32  1  0
 14 15  1  0
 15 16  1  0
 16 17  1  0
 17 18  1  0
  4  5  1  0
  9 10  2  0
 19 20  2  0
  2  3  1  0
 20 21  1  0
 10 11  1  0
 21 22  2  0
  5  6  2  0
 22 23  1  0
 11 12  2  0
 23 24  2  0
 24 19  1  0
M  END
>  <ID_NEW>
CPDRE1104

>  <pIC50>
7.568636235841011

$$$$

  -MTS-   10172316392D 0   0.00000     0.00000     0

 34 38  0  0  1  0  0  0  0  0999 V2000
   -0.8490   -0.4310    0.0000 C   0  0  0  0  0  0  0  0  0  0  0  0
   -0.1340   -0.8480    0.0000 C   0  0  0  0  0  0  0  0  0  0  0  0
    0.5820   -0.4370    0.0000 C   0  0  0  0  0  0  0  0  0  0  0  0
    0.5850    0.3900    0.0000 C   0  0  0  0  0  0  0  0  0  0  0  0
   -0.1350    0.8050    0.0000 C   0  0  0  0  0  0  0  0  0  0  0  0
   -0.8480    0.3920    0.0000 C   0  0  0  0  0  0  0  0  0  0  0  0
   -1.5640   -0.8420    0.0000 C   0  0  0  0  0  0  0  0  0  0  0  0
   -1.5620    0.8040    0.0000 O   0  0  0  0  0  0  0  0  0  0  0  0
   -0.1350    1.6300    0.0000 C   0  0  0  0  0  0  0  0  0  0  0  0
   -0.7660    3.5210    0.0000 N   0  0  0  0  0  0  0  0  0  0  0  0
   -1.5310    3.8310    0.0000 C   0  0  0  0  0  0  0  0  0  0  0  0
   -0.6510    2.6920    0.0000 C   0  0  2  0  0  0  0  0  0  0  0  0
   -2.1870    3.3230    0.0000 C   0  0  0  0  0  0  0  0  0  0  0  0
   -1.3020    2.1820    0.0000 C   0  0  0  0  0  0  0  0  0  0  0  0
   -2.0720    2.4950    0.0000 N   0  0  0  0  0  0  0  0  0  0  0  0
   -4.3760   -0.0410    0.0000 C   0  0  0  0  0  0  0  0  0  0  0  0
   -5.0980    0.3700    0.0000 C   0  0  0  0  0  0  0  0  0  0  0  0
   -5.0980    1.2040    0.0000 C   0  0  0  0  0  0  0  0  0  0  0  0
   -4.3800    1.6200    0.0000 N   0  0  0  0  0  0  0  0  0  0  0  0
   -2.8830    1.4680    0.0000 C   0  0  0  0  0  0  0  0  0  0  0  0
   -2.3890    0.8000    0.0000 C   0  0  0  0  0  0  0  0  0  0  0  0
   -2.8730    0.1250    0.0000 N   0  0  0  0  0  0  0  0  0  0  0  0
   -3.6580    0.3740    0.0000 C   0  0  0  0  0  0  0  0  0  0  0  0
   -3.6650    1.2030    0.0000 C   0  0  0  0  0  0  0  0  0  0  0  0
   -2.7460   -0.6950    0.0000 C   0  0  0  0  0  0  0  0  0  0  0  0
   -3.3960   -1.2100    0.0000 C   0  0  0  0  0  0  0  0  0  0  0  0
   -3.2730   -2.0240    0.0000 C   0  0  0  0  0  0  0  0  0  0  0  0
   -2.5000   -2.3310    0.0000 C   0  0  0  0  0  0  0  0  0  0  0  0
   -1.8490   -1.8070    0.0000 C   0  0  0  0  0  0  0  0  0  0  0  0
   -1.9750   -0.9900    0.0000 C   0  0  0  0  0  0  0  0  0  0  0  0
   -2.8520    2.2070    0.0000 C   0  0  0  0  0  0  0  0  0  0  0  0
   -3.4910    2.7330    0.0000 O   0  0  0  0  0  0  0  0  0  0  0  0
   -5.8110   -0.0450    0.0000 O   0  0  0  0  0  0  0  0  0  0  0  0
    0.1140    2.3830    0.0000 C   0  0  0  0  0  0  0  0  0  0  0  0
  4  5  1  0  0  0  0
  2  3  1  0  0  0  0
  5  6  2  0  0  0  0
  6  1  1  0  0  0  0
  1  2  2  0  0  0  0
  1  7  1  0  0  0  0
  3  4  2  0  0  0  0
  6  8  1  0  0  0  0
  5  9  1  0  0  0  0
 12 14  1  0  0  0  0
 13 15  1  0  0  0  0
 14 15  1  0  0  0  0
 10 11  1  0  0  0  0
 10 12  1  0  0  0  0
 11 13  1  0  0  0  0
 23 16  1  0  0  0  0
 16 17  2  0  0  0  0
 17 18  1  0  0  0  0
 18 19  2  0  0  0  0
 19 24  1  0  0  0  0
 23 24  2  0  0  0  0
 21 22  1  0  0  0  0
 20 21  2  0  0  0  0
 22 23  1  0  0  0  0
 24 20  1  0  0  0  0
 22 25  1  0  0  0  0
 25 26  2  0  0  0  0
 26 27  1  0  0  0  0
 27 28  2  0  0  0  0
 28 29  1  0  0  0  0
 29 30  2  0  0  0  0
 30 25  1  0  0  0  0
 21  8  1  0  0  0  0
 20 31  1  0  0  0  0
 31 15  1  0  0  0  0
 31 32  2  0  0  0  0
 17 33  1  0  0  0  0
 12 34  1  1  0  0  0
M  END
>  <ID_NEW>
CPDRE1105

>  <pIC50>
7.568636235841011

$$$$

  -MTS-   10172316392D 0   0.00000     0.00000     0

 45 49  0  0  1  0  0  0  0  0999 V2000
   -1.4720    0.3380    0.0000 C   0  0  0  0  0  0  0  0  0  0  0  0
   -1.0850   -0.3810    0.0000 C   0  0  0  0  0  0  0  0  0  0  0  0
   -1.0640    1.0440    0.0000 C   0  0  0  0  0  0  0  0  0  0  0  0
   -2.3080    0.3500    0.0000 O   0  0  0  0  0  0  0  0  0  0  0  0
   -0.2500   -0.3930    0.0000 C   0  0  0  0  0  0  0  0  0  0  0  0
   -1.4930   -1.0980    0.0000 C   0  0  0  0  0  0  0  0  0  0  0  0
   -0.2280    1.0320    0.0000 C   0  0  0  0  0  0  0  0  0  0  0  0
   -1.4510    1.7740    0.0000 C   0  0  0  0  0  0  0  0  0  0  0  0
    0.1720    0.3090    0.0000 C   0  0  0  0  0  0  0  0  0  0  0  0
   -2.6290    2.4460    0.0000 N   0  0  0  0  0  0  0  0  0  0  0  0
   -1.8290    2.2330    0.0000 C   0  0  0  0  0  0  0  0  0  0  0  0
   -1.2500    2.8130    0.0000 C   0  0  0  0  0  0  0  0  0  0  0  0
   -2.2620    3.8290    0.0000 C   0  0  0  0  0  0  0  0  0  0  0  0
   -2.8500    3.2420    0.0000 C   0  0  0  0  0  0  0  0  0  0  0  0
   -5.8280    0.9690    0.0000 C   0  0  0  0  0  0  0  0  0  0  0  0
   -5.8290    0.1370    0.0000 C   0  0  0  0  0  0  0  0  0  0  0  0
   -5.1100   -0.2750    0.0000 C   0  0  0  0  0  0  0  0  0  0  0  0
   -5.1120    1.3860    0.0000 N   0  0  0  0  0  0  0  0  0  0  0  0
   -3.5970    1.2310    0.0000 C   0  0  0  0  0  0  0  0  0  0  0  0
   -4.3930    0.9730    0.0000 C   0  0  0  0  0  0  0  0  0  0  0  0
   -4.3900    0.1350    0.0000 C   0  0  0  0  0  0  0  0  0  0  0  0
   -3.5920   -0.1180    0.0000 N   0  0  0  0  0  0  0  0  0  0  0  0
   -3.1070    0.5630    0.0000 C   0  0  0  0  0  0  0  0  0  0  0  0
   -3.1710   -0.8420    0.0000 C   0  0  0  0  0  0  0  0  0  0  0  0
   -2.3500   -0.8270    0.0000 C   0  0  0  0  0  0  0  0  0  0  0  0
   -3.5850   -1.5510    0.0000 C   0  0  0  0  0  0  0  0  0  0  0  0
   -1.9260   -1.5480    0.0000 C   0  0  0  0  0  0  0  0  0  0  0  0
   -3.1660   -2.2720    0.0000 C   0  0  0  0  0  0  0  0  0  0  0  0
   -2.3340   -2.2740    0.0000 C   0  0  0  0  0  0  0  0  0  0  0  0
   -3.3450    2.0210    0.0000 C   0  0  0  0  0  0  0  0  0  0  0  0
   -3.9030    2.6360    0.0000 O   0  0  0  0  0  0  0  0  0  0  0  0
   -1.4710    3.6210    0.0000 N   0  0  0  0  0  0  0  0  0  0  0  0
   -0.5420    2.4040    0.0000 C   0  0  0  0  0  0  0  0  0  0  0  0
    0.1730    2.8170    0.0000 C   0  0  0  0  0  0  0  0  0  0  0  0
    0.8870    2.4040    0.0000 N   0  0  0  0  0  0  0  0  0  0  0  0
    0.1720    3.6420    0.0000 O   0  0  0  0  0  0  0  0  0  0  0  0
    3.0170    2.0080    0.0000 C   0  0  0  0  0  0  0  0  0  0  0  0
    3.6000    2.5960    0.0000 N   0  0  0  0  0  0  0  0  0  0  0  0
    3.0120    1.1830    0.0000 O   0  0  0  0  0  0  0  0  0  0  0  0
    1.8500    2.0040    0.0000 C   0  0  0  0  0  0  0  0  0  0  0  0
    2.4330    2.5920    0.0000 C   0  0  2  0  0  0  0  0  0  0  0  0
    4.3980    2.3850    0.0000 C   0  0  0  0  0  0  0  0  0  0  0  0
    3.3840    3.3920    0.0000 C   0  0  0  0  0  0  0  0  0  0  0  0
    2.4250    3.4210    0.0000 C   0  0  0  0  0  0  0  0  0  0  0  0
    3.2210    3.6370    0.0000 C   0  0  0  0  0  0  0  0  0  0  0  0
 24 25  2  0  0  0  0
 24 26  1  0  0  0  0
 24 22  1  0  0  0  0
 25 27  1  0  0  0  0
 26 28  2  0  0  0  0
 27 29  2  0  0  0  0
 28 29  1  0  0  0  0
 18 15  2  0  0  0  0
 20 21  2  0  0  0  0
 16 17  2  0  0  0  0
 17 21  1  0  0  0  0
 15 16  1  0  0  0  0
 20 18  1  0  0  0  0
 19 20  1  0  0  0  0
 19 30  1  0  0  0  0
 23  4  1  0  0  0  0
 30 31  2  0  0  0  0
 30 10  1  0  0  0  0
 10 11  1  0  0  0  0
 12 32  1  0  0  0  0
 13 32  1  0  0  0  0
 10 14  1  0  0  0  0
 11 12  1  0  0  0  0
 12 33  1  0  0  0  0
 33 34  1  0  0  0  0
 34 35  1  0  0  0  0
 34 36  2  0  0  0  0
  1  2  2  0  0  0  0
  1  3  1  0  0  0  0
  1  4  1  0  0  0  0
  2  5  1  0  0  0  0
  2  6  1  0  0  0  0
  3  7  2  0  0  0  0
  3  8  1  0  0  0  0
  7  9  1  0  0  0  0
  5  9  2  0  0  0  0
 13 14  1  0  0  0  0
 21 22  1  0  0  0  0
 37 38  1  0  0  0  0
 37 39  2  0  0  0  0
 40 41  1  0  0  0  0
 37 41  1  0  0  0  0
 38 42  1  0  0  0  0
 38 43  1  0  0  0  0
 35 40  1  0  0  0  0
 41 44  1  6  0  0  0
 44 45  1  0  0  0  0
 22 23  1  0  0  0  0
 23 19  2  0  0  0  0
M  END
>  <ID_NEW>
CPDRE1106

>  <pIC50>
7.568636235841011

$$$$

  SciTegic12180813592D

 34 38  0  0  0  0            999 V2000
    0.3124    0.5542    0.0000 C   0  0
    0.3124   -0.2708    0.0000 C   0  0
    1.0245   -0.6791    0.0000 C   0  0
    1.0245    0.9709    0.0000 C   0  0
    1.7365    0.5542    0.0000 N   0  0
    1.7364   -0.2673    0.0000 C   0  0
    2.5177   -0.5212    0.0000 C   0  0
    3.0006    0.1434    0.0000 C   0  0
    2.5177    0.8079    0.0000 C   0  0
    3.8256    0.1434    0.0000 C   0  0
    4.2381   -0.5711    0.0000 C   0  0
    2.7726   -1.3058    0.0000 C   0  0
   -0.4014   -0.6843    0.0000 O   0  0
   -1.1165   -0.2729    0.0000 C   0  0
    2.2175   -1.9154    0.0000 C   0  0
    2.4718   -2.6994    0.0000 C   0  0
    3.2795   -2.8716    0.0000 C   0  0
    3.8325   -2.2536    0.0000 C   0  0
    3.5752   -1.4720    0.0000 C   0  0
    3.8222   -1.2845    0.0000 C   0  0
    4.2340   -1.9985    0.0000 C   0  0
    5.0599   -1.9989    0.0000 C   0  0
    5.4722   -1.2795    0.0000 C   0  0
    5.0581   -0.5684    0.0000 C   0  0
    5.4680    0.1475    0.0000 C   0  0
    6.2972   -1.2765    0.0000 F   0  0
    2.7727    1.5925    0.0000 C   0  0
    3.5797    1.7640    0.0000 N   0  0
    2.2207    2.2056    0.0000 O   0  0
    4.1315    1.1473    0.0000 C   0  0
    4.9354    1.3161    0.0000 C   0  0
    5.1945    2.0997    0.0000 N   0  0
    4.6433    2.7149    0.0000 C   0  0
    3.8330    2.5464    0.0000 C   0  0
 19 12  1  0
  9  5  1  0
 11 20  2  0
  5  4  1  0
 20 21  1  0
  8 10  1  0
 21 22  2  0
  5  6  1  0
 22 23  1  0
 10 11  1  0
 23 24  2  0
 24 11  1  0
 24 25  1  0
  7 12  1  0
 23 26  1  0
  9 27  1  0
  1  2  1  0
 27 28  1  0
  2 13  1  0
 27 29  2  0
 28 30  1  0
  1  4  2  0
 13 14  1  0
  2  3  2  0
 12 15  2  0
  3  6  1  0
 28 34  1  0
 30 31  1  0
 31 32  1  0
 32 33  1  0
 33 34  1  0
 15 16  1  0
  6  7  2  0
 16 17  2  0
  7  8  1  0
 17 18  1  0
  8  9  2  0
 18 19  2  0
M  END
>  <ID_NEW>
CPDRE1107

>  <pIC50>
7.552841968657781

$$$$

  SciTegic12180813532D

 34 38  0  0  0  0            999 V2000
    4.4236   -6.4333    0.0000 C   0  0
    4.4225   -7.2607    0.0000 C   0  0
    5.1373   -7.6736    0.0000 C   0  0
    5.1355   -6.0206    0.0000 C   0  0
    6.6408   -7.5161    0.0000 N   0  0
    7.1286   -6.8443    0.0000 C   0  0
    6.6403   -6.1729    0.0000 C   0  0
    5.8509   -6.4297    0.0000 C   0  0
    5.8511   -7.2599    0.0000 C   0  0
    6.8960   -8.3006    0.0000 C   0  0
    6.3417   -8.9123    0.0000 C   0  0
    6.5964   -9.6962    0.0000 C   0  0
    7.4042   -9.8681    0.0000 C   0  0
    7.9569   -9.2499    0.0000 C   0  0
    7.6993   -8.4683    0.0000 C   0  0
    3.7091   -6.0210    0.0000 O   0  0
    3.7077   -7.6726    0.0000 Cl  0  0
    6.8949   -5.3881    0.0000 C   0  0
    7.7018   -5.2163    0.0000 O   0  0
    6.3426   -4.7753    0.0000 N   0  0
    6.6002   -3.9910    0.0000 C   0  0
    6.0518   -3.3795    0.0000 C   0  0
    5.2437   -3.5473    0.0000 N   0  0
    4.9870   -4.3324    0.0000 C   0  0
    5.5383   -4.9496    0.0000 C   0  0
    7.9536   -6.8440    0.0000 O   0  0
    8.7750   -6.8417    0.0000 C   0  0
    9.1859   -7.5543    0.0000 C   0  0
   10.0066   -7.5523    0.0000 C   0  0
   10.4162   -6.8392    0.0000 C   0  0
    9.9990   -6.1266    0.0000 C   0  0
    9.1797   -6.1321    0.0000 C   0  0
    8.7741   -8.2691    0.0000 C   0  0
    8.7629   -5.4201    0.0000 C   0  0
  2 17  1  0
  7 18  1  0
 18 19  2  0
 18 20  1  0
 20 21  1  0
  1  2  2  0
  2  3  1  0
  3  9  2  0
  8  4  2  0
 20 25  1  0
 21 22  1  0
 22 23  1  0
 23 24  1  0
 24 25  1  0
  4  1  1  0
  8  9  1  0
  6  7  2  0
  5  6  1  0
  7  8  1  0
  9  5  1  0
  5 10  1  0
  6 26  1  0
 10 11  2  0
 26 27  1  0
 11 12  1  0
 27 28  2  0
 12 13  2  0
 28 29  1  0
 13 14  1  0
 29 30  2  0
 14 15  2  0
 30 31  1  0
 15 10  1  0
 31 32  2  0
 32 27  1  0
  1 16  1  0
 28 33  1  0
 32 34  1  0
M  END
>  <ID_NEW>
CPDRE1108

>  <pIC50>
7.531652669587842

$$$$

  SciTegic12180813482D

 35 39  0  0  0  0            999 V2000
   -4.1355   -1.4824    0.0000 C   0  0
   -4.9164   -1.9380    0.0000 C   0  0
   -4.9093   -2.8379    0.0000 C   0  0
   -4.1214   -3.2865    0.0000 C   0  0
   -3.3518   -1.9268    0.0000 C   0  0
   -3.3446   -2.8267    0.0000 C   0  0
   -2.4855   -3.1005    0.0000 N   0  0
   -1.9587   -2.3679    0.0000 C   0  0
   -2.4995   -1.6401    0.0000 C   0  0
   -2.2029   -3.9568    0.0000 C   0  0
   -2.7982   -4.6333    0.0000 C   0  0
   -2.5157   -5.4896    0.0000 C   0  0
   -1.6295   -5.6697    0.0000 C   0  0
   -1.0301   -4.9933    0.0000 C   0  0
   -1.3168   -4.1369    0.0000 C   0  0
   -2.2259   -0.7810    0.0000 C   0  0
   -1.3443   -0.5872    0.0000 O   0  0
   -2.8337   -0.1154    0.0000 N   0  0
   -2.5601    0.7479    0.0000 C   0  0
   -3.1679    1.4134    0.0000 C   0  0
   -4.0494    1.2197    0.0000 N   0  0
   -4.3231    0.3564    0.0000 C   0  0
   -3.7152   -0.3091    0.0000 C   0  0
   -1.3470   -6.5261    0.0000 F   0  0
   -5.6860   -3.2976    0.0000 O   0  0
   -5.6790   -4.1976    0.0000 C   0  0
   -0.4991   -1.8193    0.0000 C   0  0
    0.3925   -1.9729    0.0000 C   0  0
   -0.8102   -0.9761    0.0000 C   0  0
   -1.0713   -2.5173    0.0000 C   0  0
    0.9648   -1.2749    0.0000 C   0  0
    0.7078   -2.8160    0.0000 C   0  0
   -0.2379   -0.2824    0.0000 C   0  0
    0.6537   -0.4318    0.0000 C   0  0
    1.8550   -1.4246    0.0000 F   0  0
 14 15  2  0
 15 10  1  0
  5  1  1  0
  1  2  2  0
  2  3  1  0
  3  4  2  0
  4  6  1  0
  5  6  2  0
 31 35  1  0
  9 16  1  0
 16 17  2  0
 16 18  1  0
 18 19  1  0
 18 23  1  0
 19 20  1  0
 20 21  1  0
 21 22  1  0
 22 23  1  0
 13 24  1  0
  3 25  1  0
 25 26  1  0
  6  7  1  0
  7  8  1  0
  8  9  2  0
  9  5  1  0
  7 10  1  0
 10 11  2  0
 11 12  1  0
 27 28  2  0
 27 29  1  0
 27 30  1  0
 28 31  1  0
 28 32  1  0
 29 33  2  0
 31 34  2  0
 33 34  1  0
  8 30  1  0
 12 13  2  0
 13 14  1  0
M  END
>  <ID_NEW>
CPDRE1109

>  <pIC50>
7.522878745280337

$$$$

  SciTegic12180813452D

 32 36  0  0  0  0            999 V2000
   -5.7056    1.5292    0.0000 C   0  0
   -5.7068    0.7018    0.0000 C   0  0
   -4.9919    0.2889    0.0000 C   0  0
   -4.9937    1.9419    0.0000 C   0  0
   -4.2824    1.5291    0.0000 C   0  0
   -4.2776    0.7060    0.0000 C   0  0
   -3.4932    0.4561    0.0000 N   0  0
   -3.0132    1.1249    0.0000 C   0  0
   -3.5010    1.7880    0.0000 C   0  0
   -3.2507    2.5741    0.0000 C   0  0
   -2.4447    2.7504    0.0000 N   0  0
   -3.8063    3.1840    0.0000 O   0  0
   -1.8905    2.1373    0.0000 C   0  0
   -1.0877    2.3109    0.0000 C   0  0
   -0.8332    3.0960    0.0000 N   0  0
   -1.3880    3.7079    0.0000 C   0  0
   -2.1973    3.5347    0.0000 C   0  0
   -3.5000   -0.3667    0.0000 C   0  0
   -4.2183   -0.7703    0.0000 C   0  0
   -4.2254   -1.5924    0.0000 C   0  0
   -3.5157   -2.0105    0.0000 C   0  0
   -2.7973   -1.6006    0.0000 C   0  0
   -2.7937   -0.7799    0.0000 C   0  0
   -2.2208    0.9125    0.0000 O   0  0
   -1.5083    0.5041    0.0000 C   0  0
   -1.5085   -0.3181    0.0000 C   0  0
   -0.7969   -0.7264    0.0000 C   0  0
   -0.0860   -0.3135    0.0000 C   0  0
   -0.0912    0.5119    0.0000 C   0  0
   -0.8034    0.9165    0.0000 C   0  0
   -0.8087    1.7414    0.0000 F   0  0
   -0.7947   -1.5514    0.0000 F   0  0
 13 14  1  0
 14 15  1  0
 15 16  1  0
 16 17  1  0
  7 18  1  0
 18 19  2  0
 19 20  1  0
 20 21  2  0
 21 22  1  0
 22 23  2  0
 23 18  1  0
  8 24  1  0
 24 25  1  0
 25 26  2  0
 26 27  1  0
 27 28  2  0
 28 29  1  0
 29 30  2  0
 30 25  1  0
 30 31  1  0
 27 32  1  0
  1  2  2  0
  2  3  1  0
  3  6  2  0
  5  4  2  0
  4  1  1  0
  5  6  1  0
  6  7  1  0
  7  8  1  0
  8  9  2  0
  9  5  1  0
  9 10  1  0
 10 11  1  0
 10 12  2  0
 11 13  1  0
 11 17  1  0
M  END
>  <ID_NEW>
CPDRE1110

>  <pIC50>
7.522878745280337

$$$$

  SciTegic12180813512D

 36 40  0  0  0  0            999 V2000
   -3.6692   -0.3370    0.0000 O   0  0
    1.2789    0.6903    0.0000 C   0  0
    1.8688    1.2529    0.0000 C   0  0
    1.4636   -0.1001    0.0000 C   0  0
    0.4637    0.9133    0.0000 C   0  0
    2.6525    1.0339    0.0000 C   0  0
    1.6846    2.0777    0.0000 C   0  0
    2.2447   -0.3224    0.0000 C   0  0
    2.8346    0.2403    0.0000 C   0  0
    3.2546    1.6081    0.0000 F   0  0
   -2.4344    3.4521    0.0000 N   0  0
   -2.4758    2.6272    0.0000 C   0  0
   -1.6897    3.8329    0.0000 C   0  0
   -1.7812    2.1746    0.0000 C   0  0
   -0.9937    3.3850    0.0000 C   0  0
   -1.0365    2.5554    0.0000 N   0  0
   -2.9532    0.9023    0.0000 C   0  0
   -2.9544    0.0749    0.0000 C   0  0
   -2.2396   -0.3379    0.0000 C   0  0
   -2.2414    1.3151    0.0000 C   0  0
   -0.7347    1.1646    0.0000 C   0  0
   -1.5260    0.9059    0.0000 C   0  0
   -1.5234    0.0728    0.0000 C   0  0
   -0.7296   -0.1809    0.0000 N   0  0
   -0.2443    0.4964    0.0000 C   0  0
   -0.3090   -0.9000    0.0000 C   0  0
    0.5083   -0.8853    0.0000 C   0  0
   -0.7224   -1.6052    0.0000 C   0  0
    0.9276   -1.6020    0.0000 C   0  0
   -0.3032   -2.3219    0.0000 C   0  0
    0.5242   -2.3245    0.0000 C   0  0
   -0.4824    1.9500    0.0000 C   0  0
    0.3240    2.1242    0.0000 O   0  0
   -4.3833    0.0761    0.0000 C   0  0
   -5.0981   -0.3358    0.0000 C   0  0
   -5.8122    0.0773    0.0000 O   0  0
  3  7  1  0
  4  8  2  0
  6  9  2  0
  6 10  1  0
  8  9  1  0
  2  3  2  0
  2  4  1  0
  2  5  1  0
  3  6  1  0
 12 14  1  0
 13 15  1  0
 14 16  1  0
 15 16  1  0
 11 12  1  0
 11 13  1  0
 23 24  1  0
 24 25  1  0
 25 21  2  0
 26 27  1  0
 26 28  2  0
 26 24  1  0
 27 29  2  0
 28 30  1  0
 29 31  1  0
 30 31  2  0
 20 17  2  0
 22 23  2  0
 18 19  2  0
 19 23  1  0
 17 18  1  0
 22 20  1  0
 21 22  1  0
 21 32  1  0
 32 33  2  0
 18  1  1  0
 32 16  1  0
 25  5  1  0
  1 34  1  0
 34 35  1  0
 35 36  1  0
M  END
>  <ID_NEW>
CPDRE1111

>  <pIC50>
7.508638306165727

$$$$

  SciTegic12180813462D

 33 37  0  0  0  0            999 V2000
   -2.0693   -0.5611    0.0000 N   0  0
   -1.5874    0.1104    0.0000 C   0  0
   -2.0772    0.7761    0.0000 C   0  0
   -1.8098   -1.3442    0.0000 C   0  0
   -1.8268    1.5622    0.0000 C   0  0
   -1.0209    1.7384    0.0000 O   0  0
   -2.3614   -1.9558    0.0000 C   0  0
   -2.1024   -2.7383    0.0000 C   0  0
   -1.2937   -2.9058    0.0000 C   0  0
   -0.7444   -2.2845    0.0000 C   0  0
   -1.0062   -1.5044    0.0000 C   0  0
   -2.3824    2.1720    0.0000 N   0  0
   -2.1286    2.9593    0.0000 C   0  0
   -2.6803    3.5678    0.0000 C   0  0
   -3.4875    3.3956    0.0000 N   0  0
   -3.7399    2.6092    0.0000 C   0  0
   -3.1853    1.9950    0.0000 C   0  0
   -0.7624    0.1153    0.0000 O   0  0
    0.0625    0.1167    0.0000 C   0  0
    0.4744   -0.5993    0.0000 C   0  0
    1.2985   -0.5983    0.0000 C   0  0
    1.7106    0.1174    0.0000 C   0  0
    1.2925    0.8335    0.0000 C   0  0
    0.4697    0.8289    0.0000 C   0  0
    0.0617   -1.3137    0.0000 C   0  0
   -2.8568   -0.3103    0.0000 C   0  0
   -2.8584    0.5139    0.0000 C   0  0
   -3.5718    0.9228    0.0000 C   0  0
   -4.2841    0.5087    0.0000 C   0  0
   -4.2785   -0.3186    0.0000 C   0  0
   -3.5646   -0.7238    0.0000 C   0  0
   -4.9900   -0.7361    0.0000 O   0  0
   -5.7074   -0.3287    0.0000 C   0  0
  2 18  1  0
 18 19  1  0
 19 20  2  0
 20 21  1  0
 21 22  2  0
 22 23  1  0
 23 24  2  0
 24 19  1  0
 20 25  1  0
 26 27  2  0
 27 28  1  0
 28 29  2  0
 29 30  1  0
 30 31  2  0
 31 26  1  0
 30 32  1  0
 32 33  1  0
 26  1  1  0
  1  2  1  0
  2  3  2  0
  3 27  1  0
  1  4  1  0
  3  5  1  0
  5  6  2  0
  4  7  2  0
  7  8  1  0
  8  9  2  0
  9 10  1  0
 10 11  2  0
 11  4  1  0
  5 12  1  0
 12 13  1  0
 12 17  1  0
 13 14  1  0
 14 15  1  0
 15 16  1  0
 16 17  1  0
M  END
>  <ID_NEW>
CPDRE1112

>  <pIC50>
7.508638306165727

$$$$

  -MTS-   10172316392D 0   0.00000     0.00000     0

 42 46  0  0  1  0  0  0  0  0999 V2000
   -3.0420    0.1380    0.0000 C   0  0  0  0  0  0  0  0  0  0  0  0
   -3.0420   -0.6870    0.0000 C   0  0  0  0  0  0  0  0  0  0  0  0
   -2.3300   -1.0960    0.0000 C   0  0  0  0  0  0  0  0  0  0  0  0
   -2.3300    0.5540    0.0000 C   0  0  0  0  0  0  0  0  0  0  0  0
   -1.6180    0.1380    0.0000 N   0  0  0  0  0  0  0  0  0  0  0  0
   -1.6180   -0.6840    0.0000 C   0  0  0  0  0  0  0  0  0  0  0  0
   -0.8360   -0.9380    0.0000 C   0  0  0  0  0  0  0  0  0  0  0  0
   -0.3530   -0.2730    0.0000 C   0  0  0  0  0  0  0  0  0  0  0  0
   -0.8360    0.3910    0.0000 C   0  0  0  0  0  0  0  0  0  0  0  0
   -0.5820   -1.7220    0.0000 C   0  0  0  0  0  0  0  0  0  0  0  0
    0.4710   -0.2730    0.0000 C   0  0  0  0  0  0  0  0  0  0  0  0
    0.8840   -0.9880    0.0000 C   0  0  0  0  0  0  0  0  0  0  0  0
   -1.1370   -2.3320    0.0000 C   0  0  0  0  0  0  0  0  0  0  0  0
   -0.8820   -3.1160    0.0000 C   0  0  0  0  0  0  0  0  0  0  0  0
   -0.0750   -3.2880    0.0000 C   0  0  0  0  0  0  0  0  0  0  0  0
    0.4780   -2.6700    0.0000 C   0  0  0  0  0  0  0  0  0  0  0  0
    0.2210   -1.8890    0.0000 C   0  0  0  0  0  0  0  0  0  0  0  0
    0.4680   -1.7010    0.0000 C   0  0  0  0  0  0  0  0  0  0  0  0
    0.8800   -2.4150    0.0000 C   0  0  0  0  0  0  0  0  0  0  0  0
    1.7060   -2.4150    0.0000 C   0  0  0  0  0  0  0  0  0  0  0  0
    2.1180   -1.6960    0.0000 C   0  0  0  0  0  0  0  0  0  0  0  0
    1.7040   -0.9850    0.0000 C   0  0  0  0  0  0  0  0  0  0  0  0
    2.1140   -0.2690    0.0000 C   0  0  0  0  0  0  0  0  0  0  0  0
    2.9430   -1.6930    0.0000 F   0  0  0  0  0  0  0  0  0  0  0  0
   -0.5810    1.1760    0.0000 C   0  0  0  0  0  0  0  0  0  0  0  0
    0.2250    1.3470    0.0000 N   0  0  0  0  0  0  0  0  0  0  0  0
   -1.1330    1.7890    0.0000 O   0  0  0  0  0  0  0  0  0  0  0  0
    0.7770    0.7310    0.0000 C   0  0  0  0  0  0  0  0  0  0  0  0
    1.5810    0.8990    0.0000 C   0  0  1  0  0  0  0  0  0  0  0  0
    1.8400    1.6830    0.0000 N   0  0  0  0  0  0  0  0  0  0  0  0
    1.2890    2.2980    0.0000 C   0  0  0  0  0  0  0  0  0  0  0  0
    0.4790    2.1300    0.0000 C   0  0  0  0  0  0  0  0  0  0  0  0
    1.9870    0.1880    0.0000 C   0  0  0  0  0  0  0  0  0  0  0  0
    2.7830    0.4040    0.0000 C   0  0  0  0  0  0  0  0  0  0  0  0
    3.3670   -0.1790    0.0000 N   0  0  0  0  0  0  0  0  0  0  0  0
    2.9960    1.2040    0.0000 O   0  0  0  0  0  0  0  0  0  0  0  0
    4.1620    0.0370    0.0000 C   0  0  0  0  0  0  0  0  0  0  0  0
    4.7460   -0.5460    0.0000 C   0  0  0  0  0  0  0  0  0  0  0  0
    5.5420   -0.3290    0.0000 C   0  0  0  0  0  0  0  0  0  0  0  0
    6.1270   -0.9100    0.0000 O   0  0  0  0  0  0  0  0  0  0  0  0
    5.7520    0.4690    0.0000 O   0  0  0  0  0  0  0  0  0  0  0  0
    6.9210   -0.6920    0.0000 C   0  0  0  0  0  0  0  0  0  0  0  0
  1  4  2  0  0  0  0
 13 14  1  0  0  0  0
  2  3  2  0  0  0  0
 26 32  1  0  0  0  0
 28 29  1  0  0  0  0
 29 30  1  0  0  0  0
 30 31  1  0  0  0  0
 31 32  1  0  0  0  0
 14 15  2  0  0  0  0
  3  6  1  0  0  0  0
 15 16  1  0  0  0  0
  6  7  2  0  0  0  0
 16 17  2  0  0  0  0
 17 10  1  0  0  0  0
  7  8  1  0  0  0  0
 12 18  2  0  0  0  0
  8  9  2  0  0  0  0
 18 19  1  0  0  0  0
  9  5  1  0  0  0  0
 19 20  2  0  0  0  0
  5  4  1  0  0  0  0
 29 33  1  1  0  0  0
 20 21  1  0  0  0  0
 33 34  1  0  0  0  0
  7 10  1  0  0  0  0
 34 35  1  0  0  0  0
 21 22  2  0  0  0  0
 34 36  2  0  0  0  0
 22 12  1  0  0  0  0
  5  6  1  0  0  0  0
 22 23  1  0  0  0  0
  8 11  1  0  0  0  0
 21 24  1  0  0  0  0
  9 25  1  0  0  0  0
 11 12  1  0  0  0  0
 35 37  1  0  0  0  0
 25 26  1  0  0  0  0
 37 38  1  0  0  0  0
  1  2  1  0  0  0  0
 38 39  1  0  0  0  0
 25 27  2  0  0  0  0
 39 40  1  0  0  0  0
 26 28  1  0  0  0  0
 39 41  2  0  0  0  0
 10 13  2  0  0  0  0
 40 42  1  0  0  0  0
M  END
>  <ID_NEW>
CPDRE1113

>  <pIC50>
7.508638306165727

$$$$

  SciTegic12180813592D

 45 50  0  0  0  0            999 V2000
    9.8625   -5.8958    0.0000 C   0  0
    9.8584   -6.7208    0.0000 C   0  0
   10.5668   -7.1346    0.0000 C   0  0
   11.2840   -6.7280    0.0000 O   0  0
   11.2881   -5.9030    0.0000 C   0  0
   10.5752   -5.4846    0.0000 C   0  0
    6.3036   -5.4970    0.0000 C   0  0
    6.4950   -4.6933    0.0000 N   0  0
    4.9186   -5.1715    0.0000 N   0  0
    5.5197   -5.7347    0.0000 C   0  0
    5.8917   -4.1328    0.0000 C   0  0
    5.1014   -4.3707    0.0000 C   0  0
    4.4948   -8.7964    0.0000 C   0  0
    3.9077   -9.3777    0.0000 C   0  0
    4.1181  -10.1746    0.0000 C   0  0
    4.9150  -10.3915    0.0000 C   0  0
    5.5014   -9.8051    0.0000 C   0  0
    5.2880   -9.0104    0.0000 C   0  0
    4.3172   -6.6534    0.0000 C   0  0
    4.2982   -7.9988    0.0000 N   0  0
    4.7955   -7.3303    0.0000 C   0  0
    3.5090   -7.7310    0.0000 C   0  0
    3.5247   -6.9003    0.0000 C   0  0
    2.8143   -6.4733    0.0000 C   0  0
    2.0877   -6.8756    0.0000 N   0  0
    2.0760   -7.7096    0.0000 C   0  0
    2.7871   -8.1329    0.0000 C   0  0
    1.3487   -8.1046    0.0000 O   0  0
    0.6394   -7.6794    0.0000 C   0  0
    4.3124   -5.8249    0.0000 C   0  0
    3.7208   -5.2332    0.0000 O   0  0
    5.5875   -7.1124    0.0000 C   0  0
    6.3000   -7.5249    0.0000 C   0  0
    6.2962   -8.3493    0.0000 C   0  0
    7.0079   -8.7617    0.0000 C   0  0
    7.7224   -8.3508    0.0000 C   0  0
    7.7207   -7.5233    0.0000 C   0  0
    7.0085   -7.1146    0.0000 C   0  0
    7.0042   -6.2874    0.0000 C   0  0
    8.3000   -6.9332    0.0000 F   0  0
    7.0126   -5.9083    0.0000 C   0  0
    7.7251   -5.4916    0.0000 C   0  0
    7.7209   -4.6666    0.0000 O   0  0
    8.4376   -5.9041    0.0000 N   0  0
    9.1500   -5.4833    0.0000 C   0  0
  1  2  1  0
  1  6  1  0
  2  3  1  0
  3  4  1  0
  4  5  1  0
  9 10  1  0
  9 12  1  0
 10  7  1  0
 19 23  1  0
 22 20  1  0
 20 21  1  0
 21 19  2  0
 22 23  2  0
 23 24  1  0
 24 25  2  0
 25 26  1  0
 26 27  2  0
 27 22  1  0
 26 28  1  0
 28 29  1  0
 20 13  1  0
 13 14  2  0
 15 16  2  0
 16 17  1  0
 14 15  1  0
 19 30  1  0
 17 18  2  0
 18 13  1  0
 30 31  2  0
 21 32  1  0
 32 33  1  0
 33 34  2  0
 34 35  1  0
 35 36  2  0
  7  8  1  0
 36 37  1  0
  8 11  1  0
 37 38  2  0
 38 33  1  0
 11 12  1  0
 38 39  1  0
 37 40  1  0
 30  9  1  0
  7 41  1  0
 41 42  1  0
 42 43  2  0
 42 44  1  0
  5  6  1  0
 44 45  1  0
 45  1  1  0
M  END
>  <ID_NEW>
CPDRE1114

>  <pIC50>
7.494850021680094

$$$$

  SciTegic12180813512D

 32 36  0  0  0  0            999 V2000
   -5.8307    0.7667    0.0000 C   0  0
   -5.8319   -0.0648    0.0000 C   0  0
   -5.1128   -0.4819    0.0000 C   0  0
   -5.1146    1.1795    0.0000 C   0  0
   -4.3951    0.7704    0.0000 C   0  0
   -4.3902   -0.0649    0.0000 C   0  0
   -3.5942   -0.3213    0.0000 N   0  0
   -3.1096    0.3582    0.0000 C   0  0
   -3.6021    1.0317    0.0000 C   0  0
   -3.3518    1.8219    0.0000 C   0  0
   -2.5416    1.9982    0.0000 O   0  0
   -3.9115    2.4360    0.0000 N   0  0
   -3.3347   -1.1085    0.0000 C   0  0
   -3.8916   -1.7219    0.0000 C   0  0
   -3.6351   -2.5064    0.0000 C   0  0
   -2.8236   -2.6775    0.0000 C   0  0
   -2.2688   -2.0618    0.0000 C   0  0
   -2.5257   -1.2708    0.0000 C   0  0
   -3.6583    3.2247    0.0000 C   0  0
   -4.2100    3.8333    0.0000 C   0  0
   -5.0215    3.6612    0.0000 N   0  0
   -5.2782    2.8706    0.0000 C   0  0
   -4.7194    2.2563    0.0000 C   0  0
   -2.4000    0.7750    0.0000 C   0  0
   -1.6825    0.3679    0.0000 C   0  0
   -1.6799   -0.4552    0.0000 C   0  0
   -0.9632   -0.8622    0.0000 C   0  0
   -0.2509   -0.4443    0.0000 C   0  0
   -0.2598    0.3849    0.0000 C   0  0
   -0.9771    0.7882    0.0000 C   0  0
   -0.9875    1.6132    0.0000 C   0  0
    0.4501    0.8053    0.0000 F   0  0
  2  3  1  0
  3  6  2  0
  5  4  2  0
  4  1  1  0
  5  6  1  0
  1  2  2  0
  6  7  1  0
  7  8  1  0
  8  9  2  0
  9  5  1  0
  9 10  1  0
 10 11  2  0
 10 12  1  0
  7 13  1  0
 13 14  1  0
 13 18  1  0
 14 15  1  0
 15 16  1  0
 16 17  1  0
 17 18  1  0
 12 19  1  0
 12 23  1  0
 19 20  1  0
 20 21  1  0
 21 22  1  0
 22 23  1  0
  8 24  1  0
 24 25  1  0
 25 26  2  0
 26 27  1  0
 27 28  2  0
 28 29  1  0
 29 30  2  0
 30 25  1  0
 30 31  1  0
 29 32  1  0
M  END
>  <ID_NEW>
CPDRE1115

>  <pIC50>
7.468521082957744

$$$$

  SciTegic12180813102D

 32 36  0  0  0  0            999 V2000
   -2.5318   -0.4236    0.0000 N   0  0
   -2.0499    0.2479    0.0000 C   0  0
   -2.5397    0.9136    0.0000 C   0  0
   -2.2723   -1.2067    0.0000 C   0  0
   -2.2893    1.6997    0.0000 C   0  0
   -1.4834    1.8759    0.0000 O   0  0
   -2.8239   -1.8183    0.0000 C   0  0
   -2.5649   -2.6008    0.0000 C   0  0
   -1.7562   -2.7683    0.0000 C   0  0
   -1.2069   -2.1470    0.0000 C   0  0
   -1.4687   -1.3669    0.0000 C   0  0
   -2.8449    2.3095    0.0000 N   0  0
   -2.5911    3.0968    0.0000 C   0  0
   -3.1428    3.7053    0.0000 C   0  0
   -3.9500    3.5331    0.0000 N   0  0
   -4.2024    2.7467    0.0000 C   0  0
   -3.6478    2.1325    0.0000 C   0  0
   -1.2249    0.2528    0.0000 O   0  0
   -0.8082   -0.4592    0.0000 C   0  0
   -1.2182   -1.1750    0.0000 C   0  0
    0.0203   -1.8843    0.0000 C   0  0
    0.4308   -1.1675    0.0000 C   0  0
   -0.8050   -1.8849    0.0000 C   0  0
    0.0159   -0.4514    0.0000 C   0  0
   -3.3193   -0.1728    0.0000 C   0  0
   -3.3209    0.6514    0.0000 C   0  0
   -4.0343    1.0603    0.0000 C   0  0
   -4.7466    0.6462    0.0000 C   0  0
   -4.7410   -0.1811    0.0000 C   0  0
   -4.0271   -0.5863    0.0000 C   0  0
   -5.4526   -0.5986    0.0000 Cl  0  0
    0.4245    0.2653    0.0000 C   0  0
  9 10  1  0
 10 11  2  0
 11  4  1  0
  5 12  1  0
 12 13  1  0
 12 17  1  0
 13 14  1  0
 14 15  1  0
 15 16  1  0
 16 17  1  0
  2 18  1  0
 18 19  1  0
 19 20  2  0
 21 22  1  0
 19 24  1  0
 20 23  1  0
 23 21  2  0
 22 24  2  0
 25 26  2  0
 26 27  1  0
 24 32  1  0
 27 28  2  0
 28 29  1  0
 29 30  2  0
 30 25  1  0
 29 31  1  0
 25  1  1  0
  1  2  1  0
  2  3  2  0
  3 26  1  0
  1  4  1  0
  3  5  1  0
  5  6  2  0
  4  7  2  0
  7  8  1  0
  8  9  2  0
M  END
>  <ID_NEW>
CPDRE1116

>  <pIC50>
7.455931955649724

$$$$

  SciTegic12180813452D

 32 36  0  0  0  0            999 V2000
   -5.8306    1.6542    0.0000 C   0  0
   -5.8318    0.8268    0.0000 C   0  0
   -5.1169    0.4139    0.0000 C   0  0
   -5.1187    2.0669    0.0000 C   0  0
   -4.4074    1.6541    0.0000 C   0  0
   -4.4026    0.8310    0.0000 C   0  0
   -3.6182    0.5811    0.0000 N   0  0
   -3.1382    1.2499    0.0000 C   0  0
   -3.6260    1.9130    0.0000 C   0  0
   -3.3757    2.6991    0.0000 C   0  0
   -2.5697    2.8754    0.0000 N   0  0
   -3.9313    3.3090    0.0000 O   0  0
   -2.0155    2.2623    0.0000 C   0  0
   -1.2127    2.4359    0.0000 C   0  0
   -0.9582    3.2210    0.0000 N   0  0
   -1.5130    3.8329    0.0000 C   0  0
   -2.3223    3.6597    0.0000 C   0  0
   -3.6250   -0.2417    0.0000 C   0  0
   -4.3433   -0.6453    0.0000 C   0  0
   -4.3504   -1.4674    0.0000 C   0  0
   -3.6407   -1.8855    0.0000 C   0  0
   -2.9223   -1.4756    0.0000 C   0  0
   -2.9187   -0.6549    0.0000 C   0  0
   -2.3458    1.4667    0.0000 C   0  0
   -1.7625    0.8833    0.0000 C   0  0
   -1.9790    0.0862    0.0000 C   0  0
   -1.3964   -0.4969    0.0000 C   0  0
   -0.5986   -0.2836    0.0000 C   0  0
   -0.3866    0.5181    0.0000 C   0  0
   -0.9706    1.0977    0.0000 C   0  0
   -0.7597    1.8952    0.0000 Cl  0  0
   -2.7763   -0.1258    0.0000 F   0  0
 13 14  1  0
 14 15  1  0
 15 16  1  0
 16 17  1  0
  7 18  1  0
 18 19  2  0
 19 20  1  0
 20 21  2  0
 21 22  1  0
 22 23  2  0
 23 18  1  0
  8 24  1  0
 24 25  1  0
 25 26  2  0
 26 27  1  0
 27 28  2  0
 28 29  1  0
 29 30  2  0
 30 25  1  0
 30 31  1  0
 26 32  1  0
  1  2  2  0
  2  3  1  0
  3  6  2  0
  5  4  2  0
  4  1  1  0
  5  6  1  0
  6  7  1  0
  7  8  1  0
  8  9  2  0
  9  5  1  0
  9 10  1  0
 10 11  1  0
 10 12  2  0
 11 13  1  0
 11 17  1  0
M  END
>  <ID_NEW>
CPDRE1117

>  <pIC50>
7.455931955649724

$$$$

  SciTegic12180813592D

 44 48  0  0  0  0            999 V2000
   -1.4720    0.3376    0.0000 C   0  0
   -1.0854   -0.3811    0.0000 C   0  0
   -1.0642    1.0445    0.0000 C   0  0
   -2.3084    0.3500    0.0000 O   0  0
   -0.2497   -0.3935    0.0000 C   0  0
   -1.4933   -1.0984    0.0000 C   0  0
   -0.2285    1.0322    0.0000 C   0  0
   -1.4507    1.7736    0.0000 C   0  0
    0.1723    0.3091    0.0000 C   0  0
   -2.6292    2.4458    0.0000 N   0  0
   -1.8292    2.2333    0.0000 C   0  0
   -1.2504    2.8131    0.0000 C   0  0
   -2.2620    3.8293    0.0000 C   0  0
   -2.8504    3.2423    0.0000 C   0  0
   -5.8281    0.9690    0.0000 C   0  0
   -5.8293    0.1374    0.0000 C   0  0
   -5.1104   -0.2754    0.0000 C   0  0
   -5.1122    1.3859    0.0000 N   0  0
   -3.5971    1.2313    0.0000 C   0  0
   -4.3926    0.9726    0.0000 C   0  0
   -4.3900    0.1353    0.0000 C   0  0
   -3.5920   -0.1184    0.0000 N   0  0
   -3.1067    0.5631    0.0000 C   0  0
   -3.1714   -0.8417    0.0000 C   0  0
   -2.3500   -0.8270    0.0000 C   0  0
   -3.5848   -1.5510    0.0000 C   0  0
   -1.9265   -1.5478    0.0000 C   0  0
   -3.1656   -2.2719    0.0000 C   0  0
   -2.3341   -2.2745    0.0000 C   0  0
   -3.3448    2.0208    0.0000 C   0  0
   -3.9031    2.6363    0.0000 O   0  0
   -1.4708    3.6209    0.0000 N   0  0
   -0.5417    2.4042    0.0000 C   0  0
    0.1727    2.8168    0.0000 C   0  0
    0.8873    2.4045    0.0000 N   0  0
    0.1725    3.6418    0.0000 O   0  0
    1.6017    2.8172    0.0000 C   0  0
    2.3162    2.4049    0.0000 C   0  0
    3.0306    2.8176    0.0000 C   0  0
    3.7451    2.4052    0.0000 C   0  0
    4.4595    2.8179    0.0000 N   0  0
    3.7453    1.5802    0.0000 O   0  0
    5.1741    2.4056    0.0000 C   0  0
    4.4593    3.6429    0.0000 C   0  0
  1  2  2  0
  1  3  1  0
  1  4  1  0
  2  5  1  0
  2  6  1  0
  3  7  2  0
  3  8  1  0
  7  9  1  0
  5  9  2  0
 13 14  1  0
 21 22  1  0
 22 23  1  0
 23 19  2  0
 24 25  2  0
 24 26  1  0
 24 22  1  0
 25 27  1  0
 26 28  2  0
 27 29  2  0
 28 29  1  0
 18 15  2  0
 20 21  2  0
 16 17  2  0
 17 21  1  0
 15 16  1  0
 20 18  1  0
 19 20  1  0
 19 30  1  0
 23  4  1  0
 30 31  2  0
 30 10  1  0
 10 11  1  0
 12 32  1  0
 13 32  1  0
 10 14  1  0
 11 12  1  0
 12 33  1  0
 33 34  1  0
 34 35  1  0
 34 36  2  0
 35 37  1  0
 37 38  1  0
 38 39  1  0
 39 40  1  0
 40 41  1  0
 40 42  2  0
 41 43  1  0
 41 44  1  0
M  END
>  <ID_NEW>
CPDRE1118

>  <pIC50>
7.455931955649724

$$$$

  -MTS-   10172316392D 0   0.00000     0.00000     0

 35 39  0  0  1  0  0  0  0  0999 V2000
    7.8340   -7.0440    0.0000 C   0  0  0  0  0  0  0  0  0  0  0  0
    7.8370   -6.2170    0.0000 C   0  0  0  0  0  0  0  0  0  0  0  0
    8.5830   -7.4540    0.0000 C   0  0  0  0  0  0  0  0  0  0  0  0
    8.5890   -5.8120    0.0000 C   0  0  0  0  0  0  0  0  0  0  0  0
    7.1220   -5.8160    0.0000 O   0  0  0  0  0  0  0  0  0  0  0  0
    9.2890   -7.0500    0.0000 C   0  0  0  0  0  0  0  0  0  0  0  0
    9.2920   -6.2230    0.0000 C   0  0  0  0  0  0  0  0  0  0  0  0
    7.1230   -7.4630    0.0000 C   0  0  0  0  0  0  0  0  0  0  0  0
    8.6040   -4.9870    0.0000 C   0  0  0  0  0  0  0  0  0  0  0  0
    8.5910   -8.2790    0.0000 F   0  0  0  0  0  0  0  0  0  0  0  0
    7.8140   -2.8240    0.0000 N   0  0  0  0  0  0  0  0  0  0  0  0
    7.0230   -2.5900    0.0000 C   0  0  0  0  0  0  0  0  0  0  0  0
    8.0090   -3.6380    0.0000 C   0  0  2  0  0  0  0  0  0  0  0  0
    6.4190   -3.1580    0.0000 C   0  0  0  0  0  0  0  0  0  0  0  0
    7.4100   -4.2090    0.0000 C   0  0  0  0  0  0  0  0  0  0  0  0
    6.6140   -3.9720    0.0000 N   0  0  0  0  0  0  0  0  0  0  0  0
    8.8000   -3.8720    0.0000 C   0  0  0  0  0  0  0  0  0  0  0  0
    3.5880   -5.4140    0.0000 N   0  0  0  0  0  0  0  0  0  0  0  0
    3.5870   -6.2420    0.0000 C   0  0  0  0  0  0  0  0  0  0  0  0
    4.3020   -6.6550    0.0000 C   0  0  0  0  0  0  0  0  0  0  0  0
    4.3000   -5.0020    0.0000 C   0  0  0  0  0  0  0  0  0  0  0  0
    5.8070   -5.1510    0.0000 C   0  0  0  0  0  0  0  0  0  0  0  0
    5.0160   -5.4110    0.0000 C   0  0  0  0  0  0  0  0  0  0  0  0
    5.0180   -6.2440    0.0000 C   0  0  0  0  0  0  0  0  0  0  0  0
    5.8120   -6.4980    0.0000 N   0  0  0  0  0  0  0  0  0  0  0  0
    6.2970   -5.8200    0.0000 C   0  0  0  0  0  0  0  0  0  0  0  0
    2.8720   -6.6540    0.0000 O   0  0  0  0  0  0  0  0  0  0  0  0
    5.9610   -7.3100    0.0000 C   0  0  0  0  0  0  0  0  0  0  0  0
    5.3310   -7.8410    0.0000 C   0  0  0  0  0  0  0  0  0  0  0  0
    5.4790   -8.6520    0.0000 C   0  0  0  0  0  0  0  0  0  0  0  0
    6.2570   -8.9290    0.0000 C   0  0  0  0  0  0  0  0  0  0  0  0
    6.8870   -8.3900    0.0000 C   0  0  0  0  0  0  0  0  0  0  0  0
    6.7350   -7.5810    0.0000 C   0  0  0  0  0  0  0  0  0  0  0  0
    5.8700   -4.3290    0.0000 C   0  0  0  0  0  0  0  0  0  0  0  0
    5.1890   -3.8630    0.0000 O   0  0  0  0  0  0  0  0  0  0  0  0
  2  4  1  0  0  0  0
  2  5  1  0  0  0  0
  3  6  2  0  0  0  0
  4  7  2  0  0  0  0
  6  7  1  0  0  0  0
  1  8  1  0  0  0  0
  4  9  1  0  0  0  0
  1  2  2  0  0  0  0
  1  3  1  0  0  0  0
  3 10  1  0  0  0  0
 13 15  1  0  0  0  0
 14 16  1  0  0  0  0
 15 16  1  0  0  0  0
 11 12  1  0  0  0  0
 11 13  1  0  0  0  0
 12 14  1  0  0  0  0
 13 17  1  1  0  0  0
 23 24  2  0  0  0  0
 19 20  2  0  0  0  0
 20 24  1  0  0  0  0
 18 19  1  0  0  0  0
 23 21  1  0  0  0  0
 22 23  1  0  0  0  0
 26  5  1  0  0  0  0
 19 27  1  0  0  0  0
 25 28  1  0  0  0  0
 28 29  1  0  0  0  0
 29 30  1  0  0  0  0
 30 31  1  0  0  0  0
 31 32  1  0  0  0  0
 32 33  1  0  0  0  0
 33 28  1  0  0  0  0
 24 25  1  0  0  0  0
 25 26  1  0  0  0  0
 26 22  2  0  0  0  0
 21 18  2  0  0  0  0
 22 34  1  0  0  0  0
 34 16  1  0  0  0  0
 34 35  2  0  0  0  0
M  END
>  <ID_NEW>
CPDRE1119

>  <pIC50>
7.431798275933005

$$$$

  SciTegic12180813562D

 32 36  0  0  0  0            999 V2000
    4.0852   -0.9122    0.0000 C   0  0
    4.9733   -1.9097    0.0000 C   0  0
    4.8915   -1.0884    0.0000 C   0  0
    4.2174   -2.2412    0.0000 N   0  0
    3.6698   -1.6232    0.0000 C   0  0
    2.8653   -1.7874    0.0000 C   0  0
    2.6019   -2.5693    0.0000 C   0  0
    3.1494   -3.1874    0.0000 C   0  0
    3.9604   -3.0235    0.0000 C   0  0
    3.7537   -0.1568    0.0000 C   0  0
    5.5077   -0.5398    0.0000 C   0  0
    6.2909   -0.7991    0.0000 C   0  0
    5.6855   -2.3262    0.0000 C   0  0
    5.6809   -3.1511    0.0000 N   0  0
    6.4022   -1.9176    0.0000 O   0  0
    6.4555   -1.6053    0.0000 C   0  0
    7.2379   -1.8647    0.0000 C   0  0
    7.8550   -1.3158    0.0000 C   0  0
    7.6845   -0.5042    0.0000 C   0  0
    6.9023   -0.2486    0.0000 C   0  0
    6.7315    0.5585    0.0000 C   0  0
    8.2987    0.0466    0.0000 F   0  0
    4.9625   -3.5561    0.0000 C   0  0
    4.9560   -4.3775    0.0000 C   0  0
    5.6663   -4.7978    0.0000 N   0  0
    6.3849   -4.3905    0.0000 C   0  0
    6.3931   -3.5629    0.0000 C   0  0
    4.2486    0.5066    0.0000 C   0  0
    3.9204    1.2596    0.0000 C   0  0
    3.1005    1.3545    0.0000 C   0  0
    2.6098    0.6901    0.0000 C   0  0
    2.9390   -0.0692    0.0000 C   0  0
  4  9  1  0
 12 16  2  0
  5  6  1  0
 16 17  1  0
  6  7  2  0
 17 18  2  0
  7  8  1  0
 18 19  1  0
  8  9  2  0
 19 20  2  0
 20 12  1  0
  1  5  2  0
 20 21  1  0
  1 10  1  0
 19 22  1  0
 14 23  1  0
  3 11  1  0
  4  2  1  0
 11 12  1  0
  2  3  2  0
 14 27  1  0
 23 24  1  0
 24 25  1  0
 25 26  1  0
 26 27  1  0
 10 28  1  0
  2 13  1  0
  3  1  1  0
 13 14  1  0
  4  5  1  0
 13 15  2  0
 10 32  1  0
 28 29  1  0
 29 30  1  0
 30 31  1  0
 31 32  1  0
M  END
>  <ID_NEW>
CPDRE1120

>  <pIC50>
7.420216403383189

$$$$

  -MTS-   10172316392D 0   0.00000     0.00000     0

 43 48  0  0  1  0  0  0  0  0999 V2000
    1.2360   -4.5960    0.0000 C   0  0  0  0  0  0  0  0  0  0  0  0
    1.2350   -5.4230    0.0000 C   0  0  0  0  0  0  0  0  0  0  0  0
    1.9500   -5.8360    0.0000 C   0  0  0  0  0  0  0  0  0  0  0  0
    2.6660   -5.4230    0.0000 C   0  0  0  0  0  0  0  0  0  0  0  0
    2.6630   -4.5920    0.0000 C   0  0  0  0  0  0  0  0  0  0  0  0
    1.9480   -4.1830    0.0000 C   0  0  0  0  0  0  0  0  0  0  0  0
    1.9450   -3.3580    0.0000 C   0  0  0  0  0  0  0  0  0  0  0  0
    0.5210   -4.1830    0.0000 F   0  0  0  0  0  0  0  0  0  0  0  0
    3.3760   -4.1770    0.0000 C   0  0  0  0  0  0  0  0  0  0  0  0
    4.0920   -4.5870    0.0000 C   0  0  0  0  0  0  0  0  0  0  0  0
    4.1810   -5.4060    0.0000 C   0  0  0  0  0  0  0  0  0  0  0  0
    4.8440   -4.2480    0.0000 C   0  0  0  0  0  0  0  0  0  0  0  0
    5.0120   -3.4400    0.0000 C   0  0  0  0  0  0  0  0  0  0  0  0
    5.7940   -3.1840    0.0000 C   0  0  0  0  0  0  0  0  0  0  0  0
    5.9630   -2.3770    0.0000 C   0  0  0  0  0  0  0  0  0  0  0  0
    5.3470   -1.8270    0.0000 C   0  0  0  0  0  0  0  0  0  0  0  0
    4.5600   -2.0890    0.0000 C   0  0  0  0  0  0  0  0  0  0  0  0
    4.3960   -2.8950    0.0000 C   0  0  0  0  0  0  0  0  0  0  0  0
    5.3980   -4.8590    0.0000 C   0  0  0  0  0  0  0  0  0  0  0  0
    4.9870   -5.5750    0.0000 N   0  0  0  0  0  0  0  0  0  0  0  0
    5.4000   -6.2840    0.0000 C   0  0  0  0  0  0  0  0  0  0  0  0
    6.2240   -6.2840    0.0000 C   0  0  0  0  0  0  0  0  0  0  0  0
    6.6350   -5.5680    0.0000 C   0  0  0  0  0  0  0  0  0  0  0  0
    6.2210   -4.8530    0.0000 C   0  0  0  0  0  0  0  0  0  0  0  0
    3.5690   -5.9600    0.0000 C   0  0  0  0  0  0  0  0  0  0  0  0
    2.7840   -5.7080    0.0000 O   0  0  0  0  0  0  0  0  0  0  0  0
    3.7440   -6.7670    0.0000 N   0  0  0  0  0  0  0  0  0  0  0  0
    3.1290   -7.3180    0.0000 C   0  0  0  0  0  0  0  0  0  0  0  0
    3.3010   -8.1220    0.0000 C   0  0  0  0  0  0  0  0  0  0  0  0
    4.0850   -8.3780    0.0000 N   0  0  0  0  0  0  0  0  0  0  0  0
    4.6980   -7.8250    0.0000 C   0  0  2  0  0  0  0  0  0  0  0  0
    4.5270   -7.0150    0.0000 C   0  0  0  0  0  0  0  0  0  0  0  0
    5.4830   -8.0800    0.0000 C   0  0  0  0  0  0  0  0  0  0  0  0
    6.0620   -7.4920    0.0000 C   0  0  0  0  0  0  0  0  0  0  0  0
    6.8610   -7.6990    0.0000 N   0  0  0  0  0  0  0  0  0  0  0  0
    5.8430   -6.6960    0.0000 O   0  0  0  0  0  0  0  0  0  0  0  0
    7.4400   -7.1120    0.0000 C   0  0  0  0  0  0  0  0  0  0  0  0
    8.2380   -7.3190    0.0000 C   0  0  0  0  0  0  0  0  0  0  0  0
    8.4540   -8.1140    0.0000 C   0  0  0  0  0  0  0  0  0  0  0  0
    9.2520   -8.3220    0.0000 C   0  0  0  0  0  0  0  0  0  0  0  0
    9.8310   -7.7340    0.0000 C   0  0  0  0  0  0  0  0  0  0  0  0
    9.6080   -6.9350    0.0000 N   0  0  0  0  0  0  0  0  0  0  0  0
    8.8110   -6.7310    0.0000 C   0  0  0  0  0  0  0  0  0  0  0  0
 21 22  2  0  0  0  0
 22 23  1  0  0  0  0
 23 24  2  0  0  0  0
 11 20  1  0  0  0  0
 11 25  1  0  0  0  0
 19 12  2  0  0  0  0
 25 26  2  0  0  0  0
 12 10  1  0  0  0  0
 25 27  1  0  0  0  0
 27 28  1  0  0  0  0
  6  1  1  0  0  0  0
 12 13  1  0  0  0  0
  1  2  2  0  0  0  0
 13 14  2  0  0  0  0
  6  7  1  0  0  0  0
 27 32  1  0  0  0  0
 28 29  1  0  0  0  0
 29 30  1  0  0  0  0
 30 31  1  0  0  0  0
 31 32  1  0  0  0  0
 14 15  1  0  0  0  0
  3  4  2  0  0  0  0
 15 16  2  0  0  0  0
  1  8  1  0  0  0  0
 16 17  1  0  0  0  0
 17 18  2  0  0  0  0
 18 13  1  0  0  0  0
 31 33  1  6  0  0  0
 19 20  1  0  0  0  0
 33 34  1  0  0  0  0
  5  9  1  0  0  0  0
 34 35  1  0  0  0  0
  4  5  1  0  0  0  0
 34 36  2  0  0  0  0
 35 37  1  0  0  0  0
  9 10  1  0  0  0  0
 37 38  1  0  0  0  0
 10 11  2  0  0  0  0
 38 39  2  0  0  0  0
  2  3  1  0  0  0  0
 39 40  1  0  0  0  0
  5  6  2  0  0  0  0
 40 41  2  0  0  0  0
 19 24  1  0  0  0  0
 41 42  1  0  0  0  0
 20 21  1  0  0  0  0
 42 43  2  0  0  0  0
 43 38  1  0  0  0  0
M  END
>  <ID_NEW>
CPDRE1121

>  <pIC50>
7.420216403383189

$$$$

  -MTS-   10172316392D 0   0.00000     0.00000     0

 43 47  0  0  1  0  0  0  0  0999 V2000
   -1.4720    0.3380    0.0000 C   0  0  0  0  0  0  0  0  0  0  0  0
   -1.0850   -0.3810    0.0000 C   0  0  0  0  0  0  0  0  0  0  0  0
   -1.0640    1.0440    0.0000 C   0  0  0  0  0  0  0  0  0  0  0  0
   -2.3080    0.3500    0.0000 O   0  0  0  0  0  0  0  0  0  0  0  0
   -0.2500   -0.3930    0.0000 C   0  0  0  0  0  0  0  0  0  0  0  0
   -1.4930   -1.0980    0.0000 C   0  0  0  0  0  0  0  0  0  0  0  0
   -0.2280    1.0320    0.0000 C   0  0  0  0  0  0  0  0  0  0  0  0
   -1.4510    1.7740    0.0000 C   0  0  0  0  0  0  0  0  0  0  0  0
    0.1720    0.3090    0.0000 C   0  0  0  0  0  0  0  0  0  0  0  0
   -2.6290    2.4460    0.0000 N   0  0  0  0  0  0  0  0  0  0  0  0
   -1.8290    2.2330    0.0000 C   0  0  0  0  0  0  0  0  0  0  0  0
   -1.2500    2.8130    0.0000 C   0  0  0  0  0  0  0  0  0  0  0  0
   -2.2620    3.8290    0.0000 C   0  0  0  0  0  0  0  0  0  0  0  0
   -2.8500    3.2420    0.0000 C   0  0  0  0  0  0  0  0  0  0  0  0
   -5.8280    0.9690    0.0000 C   0  0  0  0  0  0  0  0  0  0  0  0
   -5.8290    0.1370    0.0000 C   0  0  0  0  0  0  0  0  0  0  0  0
   -5.1100   -0.2750    0.0000 C   0  0  0  0  0  0  0  0  0  0  0  0
   -5.1120    1.3860    0.0000 N   0  0  0  0  0  0  0  0  0  0  0  0
   -3.5970    1.2310    0.0000 C   0  0  0  0  0  0  0  0  0  0  0  0
   -4.3930    0.9730    0.0000 C   0  0  0  0  0  0  0  0  0  0  0  0
   -4.3900    0.1350    0.0000 C   0  0  0  0  0  0  0  0  0  0  0  0
   -3.5920   -0.1180    0.0000 N   0  0  0  0  0  0  0  0  0  0  0  0
   -3.1070    0.5630    0.0000 C   0  0  0  0  0  0  0  0  0  0  0  0
   -3.1710   -0.8420    0.0000 C   0  0  0  0  0  0  0  0  0  0  0  0
   -2.3500   -0.8270    0.0000 C   0  0  0  0  0  0  0  0  0  0  0  0
   -3.5850   -1.5510    0.0000 C   0  0  0  0  0  0  0  0  0  0  0  0
   -1.9260   -1.5480    0.0000 C   0  0  0  0  0  0  0  0  0  0  0  0
   -3.1660   -2.2720    0.0000 C   0  0  0  0  0  0  0  0  0  0  0  0
   -2.3340   -2.2740    0.0000 C   0  0  0  0  0  0  0  0  0  0  0  0
   -3.3450    2.0210    0.0000 C   0  0  0  0  0  0  0  0  0  0  0  0
   -3.9030    2.6360    0.0000 O   0  0  0  0  0  0  0  0  0  0  0  0
   -1.4710    3.6210    0.0000 N   0  0  0  0  0  0  0  0  0  0  0  0
   -0.5420    2.4040    0.0000 C   0  0  0  0  0  0  0  0  0  0  0  0
    0.1730    2.8170    0.0000 C   0  0  0  0  0  0  0  0  0  0  0  0
    0.1720    3.6420    0.0000 O   0  0  0  0  0  0  0  0  0  0  0  0
    0.9080    2.3500    0.0000 N   0  0  0  0  0  0  0  0  0  0  0  0
    1.6170    2.7710    0.0000 C   0  0  1  0  0  0  0  0  0  0  0  0
    2.3290    2.3580    0.0000 C   0  0  0  0  0  0  0  0  0  0  0  0
    3.0420    2.7750    0.0000 N   0  0  0  0  0  0  0  0  0  0  0  0
    3.7580    2.3660    0.0000 C   0  0  0  0  0  0  0  0  0  0  0  0
    3.0370    3.6000    0.0000 C   0  0  0  0  0  0  0  0  0  0  0  0
    2.3250    1.5330    0.0000 O   0  0  0  0  0  0  0  0  0  0  0  0
    1.6120    3.5960    0.0000 C   0  0  0  0  0  0  0  0  0  0  0  0
 24 25  2  0  0  0  0
 24 26  1  0  0  0  0
 24 22  1  0  0  0  0
 25 27  1  0  0  0  0
 26 28  2  0  0  0  0
 27 29  2  0  0  0  0
 28 29  1  0  0  0  0
 18 15  2  0  0  0  0
 20 21  2  0  0  0  0
 16 17  2  0  0  0  0
 17 21  1  0  0  0  0
 15 16  1  0  0  0  0
 20 18  1  0  0  0  0
 19 20  1  0  0  0  0
 19 30  1  0  0  0  0
 23  4  1  0  0  0  0
 30 31  2  0  0  0  0
 30 10  1  0  0  0  0
 10 11  1  0  0  0  0
 12 32  1  0  0  0  0
 13 32  1  0  0  0  0
 10 14  1  0  0  0  0
 11 12  1  0  0  0  0
 12 33  1  0  0  0  0
 33 34  1  0  0  0  0
 34 35  2  0  0  0  0
  1  2  2  0  0  0  0
  1  3  1  0  0  0  0
  1  4  1  0  0  0  0
  2  5  1  0  0  0  0
  2  6  1  0  0  0  0
  3  7  2  0  0  0  0
  3  8  1  0  0  0  0
  7  9  1  0  0  0  0
  5  9  2  0  0  0  0
 13 14  1  0  0  0  0
 21 22  1  0  0  0  0
 22 23  1  0  0  0  0
 23 19  2  0  0  0  0
 36 37  1  0  0  0  0
 37 38  1  0  0  0  0
 38 39  1  0  0  0  0
 39 40  1  0  0  0  0
 39 41  1  0  0  0  0
 38 42  2  0  0  0  0
 37 43  1  6  0  0  0
 34 36  1  0  0  0  0
M  END
>  <ID_NEW>
CPDRE1122

>  <pIC50>
7.420216403383189

$$$$

  SciTegic12180813592D

 39 43  0  0  0  0            999 V2000
   -1.4720    0.3376    0.0000 C   0  0
   -1.0854   -0.3811    0.0000 C   0  0
   -1.0642    1.0445    0.0000 C   0  0
   -2.3084    0.3500    0.0000 O   0  0
   -0.2497   -0.3935    0.0000 C   0  0
   -1.4933   -1.0984    0.0000 C   0  0
   -0.2285    1.0322    0.0000 C   0  0
   -1.4507    1.7736    0.0000 C   0  0
    0.1723    0.3091    0.0000 C   0  0
   -2.6292    2.4458    0.0000 N   0  0
   -1.8292    2.2333    0.0000 C   0  0
   -1.2504    2.8131    0.0000 C   0  0
   -2.2620    3.8293    0.0000 C   0  0
   -2.8504    3.2423    0.0000 C   0  0
   -5.8281    0.9690    0.0000 C   0  0
   -5.8293    0.1374    0.0000 C   0  0
   -5.1104   -0.2754    0.0000 C   0  0
   -5.1122    1.3859    0.0000 N   0  0
   -3.5971    1.2313    0.0000 C   0  0
   -4.3926    0.9726    0.0000 C   0  0
   -4.3900    0.1353    0.0000 C   0  0
   -3.5920   -0.1184    0.0000 N   0  0
   -3.1067    0.5631    0.0000 C   0  0
   -3.1714   -0.8417    0.0000 C   0  0
   -2.3500   -0.8270    0.0000 C   0  0
   -3.5848   -1.5510    0.0000 C   0  0
   -1.9265   -1.5478    0.0000 C   0  0
   -3.1656   -2.2719    0.0000 C   0  0
   -2.3341   -2.2745    0.0000 C   0  0
   -3.3448    2.0208    0.0000 C   0  0
   -3.9031    2.6363    0.0000 O   0  0
   -1.4708    3.6209    0.0000 N   0  0
   -0.5417    2.4042    0.0000 C   0  0
    0.1727    2.8168    0.0000 C   0  0
    0.8873    2.4045    0.0000 N   0  0
    0.1725    3.6418    0.0000 O   0  0
    1.6017    2.8172    0.0000 C   0  0
    2.3162    2.4049    0.0000 C   0  0
    3.0306    2.8176    0.0000 O   0  0
  1  2  2  0
  1  3  1  0
  1  4  1  0
  2  5  1  0
  2  6  1  0
  3  7  2  0
  3  8  1  0
  7  9  1  0
  5  9  2  0
 13 14  1  0
 21 22  1  0
 22 23  1  0
 23 19  2  0
 24 25  2  0
 24 26  1  0
 24 22  1  0
 25 27  1  0
 26 28  2  0
 27 29  2  0
 28 29  1  0
 18 15  2  0
 20 21  2  0
 16 17  2  0
 17 21  1  0
 15 16  1  0
 20 18  1  0
 19 20  1  0
 19 30  1  0
 23  4  1  0
 30 31  2  0
 30 10  1  0
 10 11  1  0
 12 32  1  0
 13 32  1  0
 10 14  1  0
 11 12  1  0
 12 33  1  0
 33 34  1  0
 34 35  1  0
 34 36  2  0
 35 37  1  0
 37 38  1  0
 38 39  1  0
M  END
>  <ID_NEW>
CPDRE1123

>  <pIC50>
7.4089353929735

$$$$

  SciTegic12180814002D

 40 44  0  0  0  0            999 V2000
    5.5985   -7.4666    0.0000 C   0  0
    5.5932   -8.2898    0.0000 C   0  0
    6.3024   -8.7042    0.0000 C   0  0
    7.0173   -8.2965    0.0000 C   0  0
    7.0186   -7.4701    0.0000 C   0  0
    6.3089   -7.0595    0.0000 C   0  0
    5.5994   -5.4345    0.0000 C   0  0
    5.7908   -4.6308    0.0000 N   0  0
    4.2144   -5.1090    0.0000 N   0  0
    4.8155   -5.6722    0.0000 C   0  0
    5.1875   -4.0703    0.0000 C   0  0
    4.3972   -4.3082    0.0000 C   0  0
    3.7906   -8.7339    0.0000 C   0  0
    3.2035   -9.3152    0.0000 C   0  0
    3.4139  -10.1121    0.0000 C   0  0
    4.2108  -10.3290    0.0000 C   0  0
    4.7972   -9.7426    0.0000 C   0  0
    4.5838   -8.9479    0.0000 C   0  0
    3.6130   -6.5909    0.0000 C   0  0
    3.5940   -7.9363    0.0000 N   0  0
    4.0913   -7.2678    0.0000 C   0  0
    3.6082   -5.7624    0.0000 C   0  0
    3.0166   -5.1707    0.0000 O   0  0
    6.3084   -5.8458    0.0000 C   0  0
    7.0209   -5.4291    0.0000 C   0  0
    7.0167   -4.6041    0.0000 O   0  0
    7.7334   -5.8416    0.0000 N   0  0
    8.4459   -5.4249    0.0000 C   0  0
    9.1584   -5.8374    0.0000 C   0  0
    9.8709   -5.4208    0.0000 O   0  0
   10.5834   -5.8333    0.0000 C   0  0
    4.8833   -7.0500    0.0000 O   0  0
    2.8068   -7.6704    0.0000 C   0  0
    2.8205   -6.8378    0.0000 C   0  0
    2.1073   -6.4115    0.0000 N   0  0
    1.3800   -6.8166    0.0000 C   0  0
    1.3703   -7.6525    0.0000 C   0  0
    2.0841   -8.0751    0.0000 C   0  0
    6.3106   -6.2345    0.0000 C   0  0
    4.8764   -8.6981    0.0000 C   0  0
  9 10  1  0
  9 12  1  0
 10  7  1  0
 19 34  1  0
 33 20  1  0
 20 21  1  0
 21 19  2  0
 20 13  1  0
 13 14  1  0
 15 16  1  0
 16 17  1  0
 14 15  1  0
 19 22  1  0
 17 18  1  0
 18 13  1  0
 22 23  2  0
  7  8  1  0
  8 11  1  0
 11 12  1  0
 22  9  1  0
  7 24  1  0
 24 25  1  0
 25 26  2  0
 25 27  1  0
 27 28  1  0
 28 29  1  0
 29 30  1  0
 30 31  1  0
  1  2  2  0
 21 32  1  0
  3  4  2  0
 33 34  2  0
  4  5  1  0
 34 35  1  0
  2  3  1  0
 35 36  2  0
  5  6  2  0
 36 37  1  0
  6  1  1  0
 37 38  2  0
 38 33  1  0
 32  1  1  0
  6 39  1  0
  2 40  1  0
M  END
>  <ID_NEW>
CPDRE1124

>  <pIC50>
7.4089353929735

$$$$

  SciTegic12180813592D

 43 47  0  0  0  0            999 V2000
   -1.4720    0.3376    0.0000 C   0  0
   -1.0854   -0.3811    0.0000 C   0  0
   -1.0642    1.0445    0.0000 C   0  0
   -2.3084    0.3500    0.0000 O   0  0
   -0.2497   -0.3935    0.0000 C   0  0
   -1.4933   -1.0984    0.0000 C   0  0
   -0.2285    1.0322    0.0000 C   0  0
   -1.4507    1.7736    0.0000 C   0  0
    0.1723    0.3091    0.0000 C   0  0
   -2.6292    2.4458    0.0000 N   0  0
   -1.8292    2.2333    0.0000 C   0  0
   -1.2504    2.8131    0.0000 C   0  0
   -2.2620    3.8293    0.0000 C   0  0
   -2.8504    3.2423    0.0000 C   0  0
   -5.8281    0.9690    0.0000 C   0  0
   -5.8293    0.1374    0.0000 C   0  0
   -5.1104   -0.2754    0.0000 C   0  0
   -5.1122    1.3859    0.0000 N   0  0
   -3.5971    1.2313    0.0000 C   0  0
   -4.3926    0.9726    0.0000 C   0  0
   -4.3900    0.1353    0.0000 C   0  0
   -3.5920   -0.1184    0.0000 N   0  0
   -3.1067    0.5631    0.0000 C   0  0
   -3.1714   -0.8417    0.0000 C   0  0
   -2.3500   -0.8270    0.0000 C   0  0
   -3.5848   -1.5510    0.0000 C   0  0
   -1.9265   -1.5478    0.0000 C   0  0
   -3.1656   -2.2719    0.0000 C   0  0
   -2.3341   -2.2745    0.0000 C   0  0
   -3.3448    2.0208    0.0000 C   0  0
   -3.9031    2.6363    0.0000 O   0  0
   -1.4708    3.6209    0.0000 N   0  0
   -0.5417    2.4042    0.0000 C   0  0
    0.1727    2.8168    0.0000 C   0  0
    0.8873    2.4045    0.0000 N   0  0
    0.1725    3.6418    0.0000 O   0  0
    1.6017    2.8172    0.0000 C   0  0
    2.3162    2.4049    0.0000 C   0  0
    3.0306    2.8176    0.0000 C   0  0
    3.7452    2.4053    0.0000 N   0  0
    4.4596    2.8180    0.0000 C   0  0
    3.0250    3.6458    0.0000 O   0  0
    3.7454    1.5803    0.0000 C   0  0
  1  3  1  0
  1  4  1  0
  2  5  1  0
  2  6  1  0
  3  7  2  0
  3  8  1  0
  7  9  1  0
  5  9  2  0
 13 14  1  0
 21 22  1  0
 22 23  1  0
 23 19  2  0
 24 25  2  0
 24 26  1  0
 24 22  1  0
 25 27  1  0
 26 28  2  0
 27 29  2  0
 28 29  1  0
 18 15  2  0
 20 21  2  0
 16 17  2  0
 17 21  1  0
 15 16  1  0
 20 18  1  0
 19 20  1  0
 19 30  1  0
 23  4  1  0
 30 31  2  0
 30 10  1  0
 10 11  1  0
 12 32  1  0
 13 32  1  0
 10 14  1  0
 11 12  1  0
 12 33  1  0
 33 34  1  0
 34 35  1  0
 34 36  2  0
 35 37  1  0
 37 38  1  0
 38 39  1  0
 39 40  1  0
 40 41  1  0
 39 42  2  0
  1  2  2  0
 40 43  1  0
M  END
>  <ID_NEW>
CPDRE1125

>  <pIC50>
7.3979400086720375

$$$$

  -MTS-   10172316392D 0   0.00000     0.00000     0

 43 47  0  0  1  0  0  0  0  0999 V2000
   -1.4720    0.3380    0.0000 C   0  0  0  0  0  0  0  0  0  0  0  0
   -1.0850   -0.3810    0.0000 C   0  0  0  0  0  0  0  0  0  0  0  0
   -1.0640    1.0440    0.0000 C   0  0  0  0  0  0  0  0  0  0  0  0
   -2.3080    0.3500    0.0000 O   0  0  0  0  0  0  0  0  0  0  0  0
   -0.2500   -0.3930    0.0000 C   0  0  0  0  0  0  0  0  0  0  0  0
   -1.4930   -1.0980    0.0000 C   0  0  0  0  0  0  0  0  0  0  0  0
   -0.2280    1.0320    0.0000 C   0  0  0  0  0  0  0  0  0  0  0  0
   -1.4510    1.7740    0.0000 C   0  0  0  0  0  0  0  0  0  0  0  0
    0.1720    0.3090    0.0000 C   0  0  0  0  0  0  0  0  0  0  0  0
   -2.6290    2.4460    0.0000 N   0  0  0  0  0  0  0  0  0  0  0  0
   -1.8290    2.2330    0.0000 C   0  0  0  0  0  0  0  0  0  0  0  0
   -1.2500    2.8130    0.0000 C   0  0  0  0  0  0  0  0  0  0  0  0
   -2.2620    3.8290    0.0000 C   0  0  0  0  0  0  0  0  0  0  0  0
   -2.8500    3.2420    0.0000 C   0  0  0  0  0  0  0  0  0  0  0  0
   -5.8280    0.9690    0.0000 C   0  0  0  0  0  0  0  0  0  0  0  0
   -5.8290    0.1370    0.0000 C   0  0  0  0  0  0  0  0  0  0  0  0
   -5.1100   -0.2750    0.0000 C   0  0  0  0  0  0  0  0  0  0  0  0
   -5.1120    1.3860    0.0000 N   0  0  0  0  0  0  0  0  0  0  0  0
   -3.5970    1.2310    0.0000 C   0  0  0  0  0  0  0  0  0  0  0  0
   -4.3930    0.9730    0.0000 C   0  0  0  0  0  0  0  0  0  0  0  0
   -4.3900    0.1350    0.0000 C   0  0  0  0  0  0  0  0  0  0  0  0
   -3.5920   -0.1180    0.0000 N   0  0  0  0  0  0  0  0  0  0  0  0
   -3.1070    0.5630    0.0000 C   0  0  0  0  0  0  0  0  0  0  0  0
   -3.1710   -0.8420    0.0000 C   0  0  0  0  0  0  0  0  0  0  0  0
   -2.3500   -0.8270    0.0000 C   0  0  0  0  0  0  0  0  0  0  0  0
   -3.5850   -1.5510    0.0000 C   0  0  0  0  0  0  0  0  0  0  0  0
   -1.9260   -1.5480    0.0000 C   0  0  0  0  0  0  0  0  0  0  0  0
   -3.1660   -2.2720    0.0000 C   0  0  0  0  0  0  0  0  0  0  0  0
   -2.3340   -2.2740    0.0000 C   0  0  0  0  0  0  0  0  0  0  0  0
   -3.3450    2.0210    0.0000 C   0  0  0  0  0  0  0  0  0  0  0  0
   -3.9030    2.6360    0.0000 O   0  0  0  0  0  0  0  0  0  0  0  0
   -1.4710    3.6210    0.0000 N   0  0  0  0  0  0  0  0  0  0  0  0
   -0.5420    2.4040    0.0000 C   0  0  0  0  0  0  0  0  0  0  0  0
    0.1730    2.8170    0.0000 C   0  0  0  0  0  0  0  0  0  0  0  0
    0.8870    2.4040    0.0000 N   0  0  0  0  0  0  0  0  0  0  0  0
    0.1720    3.6420    0.0000 O   0  0  0  0  0  0  0  0  0  0  0  0
    1.6020    2.8170    0.0000 C   0  0  2  0  0  0  0  0  0  0  0  0
    2.3160    2.4050    0.0000 C   0  0  0  0  0  0  0  0  0  0  0  0
    3.0310    2.8180    0.0000 N   0  0  0  0  0  0  0  0  0  0  0  0
    2.3160    1.5800    0.0000 O   0  0  0  0  0  0  0  0  0  0  0  0
    3.7450    2.4050    0.0000 C   0  0  0  0  0  0  0  0  0  0  0  0
    3.0300    3.6430    0.0000 C   0  0  0  0  0  0  0  0  0  0  0  0
    1.5960    3.6460    0.0000 C   0  0  0  0  0  0  0  0  0  0  0  0
  2  5  1  0  0  0  0
  2  6  1  0  0  0  0
  3  7  2  0  0  0  0
  3  8  1  0  0  0  0
  7  9  1  0  0  0  0
  5  9  2  0  0  0  0
 13 14  1  0  0  0  0
 21 22  1  0  0  0  0
 22 23  1  0  0  0  0
 23 19  2  0  0  0  0
 24 25  2  0  0  0  0
 24 26  1  0  0  0  0
 24 22  1  0  0  0  0
 25 27  1  0  0  0  0
 26 28  2  0  0  0  0
 27 29  2  0  0  0  0
 28 29  1  0  0  0  0
 18 15  2  0  0  0  0
 20 21  2  0  0  0  0
 16 17  2  0  0  0  0
 17 21  1  0  0  0  0
 15 16  1  0  0  0  0
 20 18  1  0  0  0  0
 19 20  1  0  0  0  0
 19 30  1  0  0  0  0
 23  4  1  0  0  0  0
 30 31  2  0  0  0  0
 30 10  1  0  0  0  0
 10 11  1  0  0  0  0
 12 32  1  0  0  0  0
 13 32  1  0  0  0  0
 10 14  1  0  0  0  0
 11 12  1  0  0  0  0
 12 33  1  0  0  0  0
 33 34  1  0  0  0  0
 34 35  1  0  0  0  0
 34 36  2  0  0  0  0
 35 37  1  0  0  0  0
 37 38  1  0  0  0  0
 38 39  1  0  0  0  0
 38 40  2  0  0  0  0
  1  2  2  0  0  0  0
 39 41  1  0  0  0  0
  1  3  1  0  0  0  0
 39 42  1  0  0  0  0
  1  4  1  0  0  0  0
 37 43  1  1  0  0  0
M  END
>  <ID_NEW>
CPDRE1126

>  <pIC50>
7.387216143280263

$$$$

  SciTegic12180813082D

 32 36  0  0  0  0            999 V2000
   -3.4902   -0.8153    0.0000 N   0  0
   -3.0083   -0.1438    0.0000 C   0  0
   -3.4981    0.5219    0.0000 C   0  0
   -3.2307   -1.5984    0.0000 C   0  0
   -3.2477    1.3080    0.0000 C   0  0
   -2.4418    1.4842    0.0000 O   0  0
   -3.7823   -2.2100    0.0000 C   0  0
   -3.5233   -2.9925    0.0000 C   0  0
   -2.7146   -3.1600    0.0000 C   0  0
   -2.1653   -2.5387    0.0000 C   0  0
   -2.4271   -1.7586    0.0000 C   0  0
   -3.8033    1.9178    0.0000 N   0  0
   -3.5495    2.7051    0.0000 C   0  0
   -4.1012    3.3136    0.0000 C   0  0
   -4.9084    3.1414    0.0000 N   0  0
   -5.1608    2.3550    0.0000 C   0  0
   -4.6062    1.7408    0.0000 C   0  0
   -2.1833   -0.1389    0.0000 O   0  0
   -1.3584   -0.1375    0.0000 C   0  0
   -0.9465   -0.8535    0.0000 C   0  0
   -0.1224   -0.8525    0.0000 C   0  0
    0.2897   -0.1368    0.0000 C   0  0
   -0.1284    0.5793    0.0000 C   0  0
   -0.9512    0.5747    0.0000 C   0  0
   -1.3592   -1.5679    0.0000 C   0  0
   -4.2777   -0.5645    0.0000 C   0  0
   -4.2793    0.2597    0.0000 C   0  0
   -4.9927    0.6686    0.0000 C   0  0
   -5.7050    0.2545    0.0000 C   0  0
   -5.6994   -0.5728    0.0000 C   0  0
   -4.9855   -0.9780    0.0000 C   0  0
   -2.4541   -3.9428    0.0000 F   0  0
 12 17  1  0
 13 14  1  0
 14 15  1  0
 15 16  1  0
 16 17  1  0
  2 18  1  0
 18 19  1  0
 19 20  2  0
 20 21  1  0
 21 22  2  0
 22 23  1  0
 23 24  2  0
 24 19  1  0
 20 25  1  0
 26 27  2  0
 27 28  1  0
 28 29  2  0
 29 30  1  0
 30 31  2  0
 31 26  1  0
  9 32  1  0
 26  1  1  0
  1  2  1  0
  2  3  2  0
  3 27  1  0
  1  4  1  0
  3  5  1  0
  5  6  2  0
  4  7  2  0
  7  8  1  0
  8  9  2  0
  9 10  1  0
 10 11  2  0
 11  4  1  0
  5 12  1  0
 12 13  1  0
M  END
>  <ID_NEW>
CPDRE1127

>  <pIC50>
7.376750709602099

$$$$

  SciTegic12180814002D

 45 49  0  0  0  0            999 V2000
   -2.6389   -4.6333    0.0000 C   0  0
   -2.6401   -5.4606    0.0000 C   0  0
   -1.9252   -5.8735    0.0000 C   0  0
   -1.9270   -4.2205    0.0000 C   0  0
   -0.4203   -4.3710    0.0000 C   0  0
   -1.2117   -4.6296    0.0000 C   0  0
   -1.2091   -5.4628    0.0000 C   0  0
   -0.4153   -5.7165    0.0000 N   0  0
    0.0701   -5.0392    0.0000 C   0  0
   -0.1680   -3.5856    0.0000 C   0  0
   -0.7220   -2.9743    0.0000 O   0  0
   -0.1559   -6.4997    0.0000 C   0  0
   -0.7065   -7.1103    0.0000 C   0  0
   -0.4477   -7.8929    0.0000 C   0  0
    0.3610   -8.0605    0.0000 C   0  0
    0.9104   -7.4393    0.0000 C   0  0
    0.6487   -6.6592    0.0000 C   0  0
    0.8951   -5.0345    0.0000 C   0  0
    0.5417   -3.1667    0.0000 N   0  0
    1.2592   -3.5740    0.0000 C   0  0
    1.9668   -3.1586    0.0000 C   0  0
    1.9631   -2.3341    0.0000 N   0  0
    1.2455   -1.9267    0.0000 C   0  0
    0.5317   -2.3439    0.0000 C   0  0
    1.2375   -1.1000    0.0000 C   0  0
    0.5191   -0.6945    0.0000 C   0  0
    0.5110    0.1305    0.0000 N   0  0
   -0.1914   -1.1139    0.0000 O   0  0
   -3.3549   -5.8726    0.0000 O   0  0
   -4.0691   -5.4595    0.0000 C   0  0
    1.3117   -5.7466    0.0000 C   0  0
    0.9014   -6.4627    0.0000 C   0  0
    1.3173   -7.1743    0.0000 C   0  0
    2.1431   -7.1701    0.0000 C   0  0
    2.5514   -6.4483    0.0000 C   0  0
    2.1331   -5.7396    0.0000 C   0  0
    2.5392   -5.0214    0.0000 C   0  0
    3.3763   -6.4406    0.0000 F   0  0
    1.2214    0.5500    0.0000 C   0  0
    1.2133    1.3749    0.0000 C   0  0
    1.9250    1.7916    0.0000 C   0  0
    0.4955    1.7817    0.0000 C   0  0
    0.3875    1.3791    0.0000 C   0  0
    2.6420    1.3835    0.0000 N   0  0
    1.9200    2.6166    0.0000 O   0  0
  8 12  1  0
  4  1  1  0
 12 13  2  0
  6  7  1  0
 13 14  1  0
  5  6  1  0
 14 15  2  0
  7  8  1  0
 15 16  1  0
  8  9  1  0
 16 17  2  0
 17 12  1  0
  9  5  2  0
  5 10  1  0
 10 19  1  0
 19 20  1  0
 19 24  1  0
 20 21  1  0
 21 22  1  0
 22 23  1  0
 23 24  1  0
 23 25  1  0
 25 26  1  0
 26 27  1  0
 26 28  2  0
  2 29  1  0
 29 30  1  0
 18 31  1  0
 31 32  2  0
 32 33  1  0
 33 34  2  0
 34 35  1  0
 35 36  2  0
 36 31  1  0
 36 37  1  0
 35 38  1  0
 27 39  1  0
 10 11  2  0
 39 40  1  0
  9 18  1  0
 40 41  1  0
  1  2  2  0
 40 42  1  0
  2  3  1  0
 40 43  1  0
  3  7  2  0
 41 44  1  0
  6  4  2  0
 41 45  2  0
M  END
>  <ID_NEW>
CPDRE1128

>  <pIC50>
7.366531544420413

$$$$

  SciTegic12180813522D

 36 40  0  0  0  0            999 V2000
   -0.5047   -0.2563    0.0000 N   0  0
   -0.5230   -1.0821    0.0000 C   0  0
    0.2292    0.1451    0.0000 C   0  0
    0.1839   -1.5151    0.0000 C   0  0
    0.9374   -0.2832    0.0000 C   0  0
    0.9177   -1.1137    0.0000 N   0  0
   -0.9990   -2.7727    0.0000 C   0  0
   -1.0002   -3.6001    0.0000 C   0  0
   -0.2854   -4.0129    0.0000 C   0  0
   -0.2872   -2.3599    0.0000 C   0  0
    1.2195   -2.5104    0.0000 C   0  0
    0.4282   -2.7691    0.0000 C   0  0
    0.4308   -3.6022    0.0000 C   0  0
    1.2246   -3.8559    0.0000 N   0  0
    1.7099   -3.1786    0.0000 C   0  0
    1.6452   -4.5750    0.0000 C   0  0
    2.4625   -4.5603    0.0000 C   0  0
    1.2318   -5.2802    0.0000 C   0  0
    2.8818   -5.2770    0.0000 C   0  0
    1.6510   -5.9969    0.0000 C   0  0
    2.4784   -5.9995    0.0000 C   0  0
    1.4718   -1.7250    0.0000 C   0  0
    2.2782   -1.5508    0.0000 O   0  0
   -1.7150   -4.0120    0.0000 S   0  0
   -2.4291   -3.5990    0.0000 O   0  0
   -1.7156   -4.8370    0.0000 O   0  0
   -2.4334   -4.4167    0.0000 C   0  0
    2.5041   -3.3875    0.0000 C   0  0
    3.2166   -2.9708    0.0000 C   0  0
    3.9333   -3.3825    0.0000 C   0  0
    4.6453   -2.9665    0.0000 C   0  0
    4.6411   -2.1403    0.0000 C   0  0
    3.9190   -1.7317    0.0000 C   0  0
    3.2100   -2.1501    0.0000 C   0  0
    3.9363   -4.2075    0.0000 C   0  0
    5.3619   -3.3753    0.0000 F   0  0
  2  4  1  0
  3  5  1  0
  4  6  1  0
  5  6  1  0
  1  2  1  0
  1  3  1  0
 13 14  1  0
 14 15  1  0
 15 11  2  0
 16 17  1  0
 16 18  2  0
 16 14  1  0
 17 19  2  0
 18 20  1  0
 19 21  1  0
 20 21  2  0
 10  7  2  0
 12 13  2  0
  8  9  2  0
  9 13  1  0
  7  8  1  0
 12 10  1  0
 11 12  1  0
 11 22  1  0
 22 23  2  0
  8 24  1  0
 24 25  2  0
 24 26  2  0
 24 27  1  0
 15 28  1  0
 28 29  1  0
 29 30  2  0
 30 31  1  0
 31 32  2  0
 32 33  1  0
 33 34  2  0
 34 29  1  0
 30 35  1  0
 22  6  1  0
 31 36  1  0
M  END
>  <ID_NEW>
CPDRE1129

>  <pIC50>
7.356547323513812

$$$$

  SciTegic12180813472D

 31 35  0  0  0  0            999 V2000
   -4.9940    0.1221    0.0000 C   0  0
   -5.7048   -0.2928    0.0000 C   0  0
   -5.6978   -1.1191    0.0000 C   0  0
   -4.9839   -1.5226    0.0000 C   0  0
   -4.2808   -0.2851    0.0000 C   0  0
   -4.2777   -1.1113    0.0000 C   0  0
   -3.4910   -1.3637    0.0000 N   0  0
   -3.0078   -0.6935    0.0000 C   0  0
   -3.4959   -0.0269    0.0000 C   0  0
   -3.2438    0.7586    0.0000 C   0  0
   -2.4375    0.9331    0.0000 O   0  0
   -3.2332   -2.1474    0.0000 C   0  0
   -3.7141   -2.8175    0.0000 C   0  0
   -3.2268   -3.4832    0.0000 C   0  0
   -2.4430   -3.2254    0.0000 S   0  0
   -2.4461   -2.4004    0.0000 C   0  0
   -3.7980    1.3696    0.0000 N   0  0
   -3.5422    2.1536    0.0000 C   0  0
   -4.0926    2.7633    0.0000 C   0  0
   -4.9001    2.5929    0.0000 N   0  0
   -5.1544    1.8071    0.0000 C   0  0
   -4.6011    1.1916    0.0000 C   0  0
   -2.1828   -0.6905    0.0000 O   0  0
   -1.3583   -0.6875    0.0000 C   0  0
   -0.9453   -1.4023    0.0000 C   0  0
   -0.1216   -1.3997    0.0000 C   0  0
    0.2889   -0.6836    0.0000 C   0  0
   -0.1304    0.0313    0.0000 C   0  0
   -0.9527    0.0251    0.0000 C   0  0
   -1.3566   -2.1175    0.0000 C   0  0
    0.2770    0.7487    0.0000 F   0  0
 17 22  1  0
 18 19  1  0
 19 20  1  0
 20 21  1  0
 21 22  1  0
  8 23  1  0
 23 24  1  0
 24 25  2  0
 25 26  1  0
 26 27  2  0
 27 28  1  0
 28 29  2  0
 29 24  1  0
 25 30  1  0
 28 31  1  0
  6  7  1  0
  7  8  1  0
  8  9  2  0
  9  5  1  0
  5  1  1  0
  1  2  2  0
  2  3  1  0
  3  4  2  0
  4  6  1  0
  5  6  2  0
  9 10  1  0
 10 11  2  0
  7 12  1  0
 12 13  1  0
 13 14  2  0
 14 15  1  0
 15 16  1  0
 16 12  2  0
 10 17  1  0
 17 18  1  0
M  END
>  <ID_NEW>
CPDRE1130

>  <pIC50>
7.356547323513812

$$$$

  SciTegic12180814002D

 44 48  0  0  0  0            999 V2000
   -0.2347   -5.0500    0.0000 C   0  0
   -0.2359   -5.8773    0.0000 C   0  0
    0.4790   -6.2902    0.0000 C   0  0
    0.4772   -4.6372    0.0000 C   0  0
    1.9839   -4.7877    0.0000 C   0  0
    1.1925   -5.0463    0.0000 C   0  0
    1.1951   -5.8795    0.0000 C   0  0
    1.9889   -6.1332    0.0000 N   0  0
    2.4743   -5.4559    0.0000 C   0  0
    2.2362   -4.0023    0.0000 C   0  0
    1.6822   -3.3910    0.0000 O   0  0
    2.2483   -6.9164    0.0000 C   0  0
    1.6977   -7.5270    0.0000 C   0  0
    1.9565   -8.3096    0.0000 C   0  0
    2.7652   -8.4772    0.0000 C   0  0
    3.3146   -7.8560    0.0000 C   0  0
    3.0529   -7.0759    0.0000 C   0  0
    3.2993   -5.4512    0.0000 C   0  0
    2.9459   -3.5834    0.0000 N   0  0
    3.6634   -3.9907    0.0000 C   0  0
    4.3710   -3.5753    0.0000 C   0  0
    4.3673   -2.7508    0.0000 N   0  0
    3.6497   -2.3434    0.0000 C   0  0
    2.9359   -2.7606    0.0000 C   0  0
    3.6417   -1.5167    0.0000 C   0  0
    2.9233   -1.1112    0.0000 C   0  0
    2.9152   -0.2862    0.0000 N   0  0
    2.2128   -1.5306    0.0000 O   0  0
   -0.9507   -6.2893    0.0000 O   0  0
    3.7159   -6.1633    0.0000 C   0  0
    3.3056   -6.8794    0.0000 C   0  0
    3.7215   -7.5910    0.0000 C   0  0
    4.5473   -7.5868    0.0000 C   0  0
    4.9556   -6.8650    0.0000 C   0  0
    4.5373   -6.1563    0.0000 C   0  0
    4.9434   -5.4381    0.0000 C   0  0
    5.7805   -6.8573    0.0000 F   0  0
    3.6256    0.1333    0.0000 C   0  0
    3.6175    0.9582    0.0000 C   0  0
    4.3292    1.3749    0.0000 C   0  0
    2.8997    1.3650    0.0000 C   0  0
    2.7917    0.9624    0.0000 C   0  0
    5.0462    0.9668    0.0000 N   0  0
    4.3242    2.1999    0.0000 O   0  0
  8 12  1  0
  4  1  1  0
 12 13  2  0
  6  7  1  0
 13 14  1  0
  5  6  1  0
 14 15  2  0
  7  8  1  0
 15 16  1  0
  8  9  1  0
 16 17  2  0
 17 12  1  0
  9  5  2  0
  5 10  1  0
 10 19  1  0
 19 20  1  0
 19 24  1  0
 20 21  1  0
 21 22  1  0
 22 23  1  0
 23 24  1  0
 23 25  1  0
 25 26  1  0
 26 27  1  0
 26 28  2  0
  2 29  1  0
 18 30  1  0
 30 31  2  0
 31 32  1  0
 32 33  2  0
 33 34  1  0
 34 35  2  0
 35 30  1  0
 35 36  1  0
 34 37  1  0
 27 38  1  0
 10 11  2  0
 38 39  1  0
  9 18  1  0
 39 40  1  0
  1  2  2  0
 39 41  1  0
  2  3  1  0
 39 42  1  0
  3  7  2  0
 40 43  1  0
  6  4  2  0
 40 44  2  0
M  END
>  <ID_NEW>
CPDRE1131

>  <pIC50>
7.346787486224656

$$$$

  -MTS-   10172316392D 0   0.00000     0.00000     0

 35 39  0  0  1  0  0  0  0  0999 V2000
   -4.0360   -1.2360    0.0000 C   0  0  0  0  0  0  0  0  0  0  0  0
   -4.7460   -1.6510    0.0000 C   0  0  0  0  0  0  0  0  0  0  0  0
   -4.7390   -2.4770    0.0000 C   0  0  0  0  0  0  0  0  0  0  0  0
   -4.0260   -2.8810    0.0000 C   0  0  0  0  0  0  0  0  0  0  0  0
   -3.3220   -1.6430    0.0000 C   0  0  0  0  0  0  0  0  0  0  0  0
   -3.3190   -2.4700    0.0000 C   0  0  0  0  0  0  0  0  0  0  0  0
   -2.5330   -2.7220    0.0000 N   0  0  0  0  0  0  0  0  0  0  0  0
   -2.0490   -2.0520    0.0000 C   0  0  0  0  0  0  0  0  0  0  0  0
   -2.5380   -1.3850    0.0000 C   0  0  0  0  0  0  0  0  0  0  0  0
   -2.2850   -0.6000    0.0000 C   0  0  0  0  0  0  0  0  0  0  0  0
   -1.4790   -0.4250    0.0000 O   0  0  0  0  0  0  0  0  0  0  0  0
   -2.8400    0.0110    0.0000 N   0  0  0  0  0  0  0  0  0  0  0  0
   -2.5840    0.7950    0.0000 C   0  0  0  0  0  0  0  0  0  0  0  0
   -3.1340    1.4050    0.0000 C   0  0  1  0  0  0  0  0  0  0  0  0
   -3.9420    1.2340    0.0000 N   0  0  0  0  0  0  0  0  0  0  0  0
   -4.1960    0.4490    0.0000 C   0  0  0  0  0  0  0  0  0  0  0  0
   -3.6430   -0.1670    0.0000 C   0  0  0  0  0  0  0  0  0  0  0  0
   -1.2240   -2.0490    0.0000 O   0  0  0  0  0  0  0  0  0  0  0  0
   -0.4000   -2.0460    0.0000 C   0  0  0  0  0  0  0  0  0  0  0  0
    0.0130   -2.7610    0.0000 C   0  0  0  0  0  0  0  0  0  0  0  0
    0.8370   -2.7580    0.0000 C   0  0  0  0  0  0  0  0  0  0  0  0
    1.2470   -2.0420    0.0000 C   0  0  0  0  0  0  0  0  0  0  0  0
    0.8280   -1.3270    0.0000 C   0  0  0  0  0  0  0  0  0  0  0  0
    0.0060   -1.3330    0.0000 C   0  0  0  0  0  0  0  0  0  0  0  0
    1.2510   -3.4710    0.0000 F   0  0  0  0  0  0  0  0  0  0  0  0
   -2.8790    2.1890    0.0000 C   0  0  0  0  0  0  0  0  0  0  0  0
   -0.4120   -0.6220    0.0000 C   0  0  0  0  0  0  0  0  0  0  0  0
   -5.4640   -1.2430    0.0000 O   0  0  0  0  0  0  0  0  0  0  0  0
   -2.2750   -3.5060    0.0000 C   0  0  0  0  0  0  0  0  0  0  0  0
   -2.8260   -4.1190    0.0000 C   0  0  0  0  0  0  0  0  0  0  0  0
   -2.5690   -4.9020    0.0000 C   0  0  0  0  0  0  0  0  0  0  0  0
   -1.7610   -5.0710    0.0000 C   0  0  0  0  0  0  0  0  0  0  0  0
   -1.2100   -4.4510    0.0000 C   0  0  0  0  0  0  0  0  0  0  0  0
   -1.4700   -3.6700    0.0000 C   0  0  0  0  0  0  0  0  0  0  0  0
   -5.4500   -2.8960    0.0000 Cl  0  0  0  0  0  0  0  0  0  0  0  0
  6  7  1  0  0  0  0
  7  8  1  0  0  0  0
  8  9  2  0  0  0  0
  9  5  1  0  0  0  0
  5  1  1  0  0  0  0
  1  2  2  0  0  0  0
  2  3  1  0  0  0  0
  3  4  2  0  0  0  0
  4  6  1  0  0  0  0
  5  6  2  0  0  0  0
  9 10  1  0  0  0  0
 10 11  2  0  0  0  0
 10 12  1  0  0  0  0
 12 13  1  0  0  0  0
 12 17  1  0  0  0  0
 13 14  1  0  0  0  0
 14 15  1  0  0  0  0
 15 16  1  0  0  0  0
 16 17  1  0  0  0  0
  8 18  1  0  0  0  0
 18 19  1  0  0  0  0
 19 20  2  0  0  0  0
 20 21  1  0  0  0  0
 21 22  2  0  0  0  0
 22 23  1  0  0  0  0
 23 24  2  0  0  0  0
 24 19  1  0  0  0  0
 21 25  1  0  0  0  0
 14 26  1  1  0  0  0
 24 27  1  0  0  0  0
  2 28  1  0  0  0  0
  7 29  1  0  0  0  0
 29 30  2  0  0  0  0
 30 31  1  0  0  0  0
 31 32  2  0  0  0  0
 32 33  1  0  0  0  0
 33 34  2  0  0  0  0
 34 29  1  0  0  0  0
  3 35  1  0  0  0  0
M  END
>  <ID_NEW>
CPDRE1132

>  <pIC50>
7.327902142064281

$$$$

  SciTegic12180814002D

 45 50  0  0  0  0            999 V2000
   -1.4720    0.3376    0.0000 C   0  0
   -1.0854   -0.3811    0.0000 C   0  0
   -1.0642    1.0445    0.0000 C   0  0
   -2.3084    0.3500    0.0000 O   0  0
   -0.2497   -0.3935    0.0000 C   0  0
   -1.4933   -1.0984    0.0000 C   0  0
   -0.2285    1.0322    0.0000 C   0  0
   -1.4507    1.7736    0.0000 C   0  0
    0.1723    0.3091    0.0000 C   0  0
   -2.6292    2.4458    0.0000 N   0  0
   -1.8292    2.2333    0.0000 C   0  0
   -1.2504    2.8131    0.0000 C   0  0
   -2.2620    3.8293    0.0000 C   0  0
   -2.8504    3.2423    0.0000 C   0  0
   -5.8281    0.9690    0.0000 C   0  0
   -5.8293    0.1374    0.0000 C   0  0
   -5.1104   -0.2754    0.0000 C   0  0
   -5.1122    1.3859    0.0000 N   0  0
   -3.5971    1.2313    0.0000 C   0  0
   -4.3926    0.9726    0.0000 C   0  0
   -4.3900    0.1353    0.0000 C   0  0
   -3.5920   -0.1184    0.0000 N   0  0
   -3.1067    0.5631    0.0000 C   0  0
   -3.1714   -0.8417    0.0000 C   0  0
   -2.3500   -0.8270    0.0000 C   0  0
   -3.5848   -1.5510    0.0000 C   0  0
   -1.9265   -1.5478    0.0000 C   0  0
   -3.1656   -2.2719    0.0000 C   0  0
   -2.3341   -2.2745    0.0000 C   0  0
   -3.3448    2.0208    0.0000 C   0  0
   -3.9031    2.6363    0.0000 O   0  0
   -1.4708    3.6209    0.0000 N   0  0
   -0.5417    2.4042    0.0000 C   0  0
    0.1727    2.8168    0.0000 C   0  0
    0.8873    2.4045    0.0000 N   0  0
    0.1725    3.6418    0.0000 O   0  0
    3.0167    2.0083    0.0000 C   0  0
    3.6000    2.5958    0.0000 N   0  0
    3.0125    1.1833    0.0000 O   0  0
    1.8500    2.0042    0.0000 C   0  0
    2.4333    2.5917    0.0000 C   0  0
    2.8446    3.3069    0.0000 C   0  0
    2.0196    3.3054    0.0000 C   0  0
    4.3977    2.3851    0.0000 C   0  0
    3.3836    3.3919    0.0000 C   0  0
 22 23  1  0
 23 19  2  0
 24 25  2  0
 24 26  1  0
 24 22  1  0
 25 27  1  0
 26 28  2  0
 27 29  2  0
 28 29  1  0
 18 15  2  0
 20 21  2  0
 16 17  2  0
 17 21  1  0
 15 16  1  0
 20 18  1  0
 19 20  1  0
 19 30  1  0
 23  4  1  0
 30 31  2  0
 30 10  1  0
 10 11  1  0
 12 32  1  0
 13 32  1  0
 10 14  1  0
 11 12  1  0
 12 33  1  0
 33 34  1  0
 34 35  1  0
 34 36  2  0
  1  2  2  0
  1  3  1  0
  1  4  1  0
  2  5  1  0
  2  6  1  0
  3  7  2  0
  3  8  1  0
  7  9  1  0
  5  9  2  0
 13 14  1  0
 21 22  1  0
 42 41  1  0
 43 42  1  0
 41 43  1  0
 37 38  1  0
 37 39  2  0
 40 41  1  0
 37 41  1  0
 38 44  1  0
 38 45  1  0
 35 40  1  0
M  END
>  <ID_NEW>
CPDRE1133

>  <pIC50>
7.318758762624412

$$$$

  SciTegic12180813512D

 34 38  0  0  0  0            999 V2000
    5.3584   -3.4959    0.0000 N   0  0
    5.5709   -4.2917    0.0000 C   0  0
    6.3619   -4.5044    0.0000 C   0  0
    6.9461   -3.9245    0.0000 N   0  0
    6.7336   -3.1287    0.0000 C   0  0
    5.9369   -2.9127    0.0000 C   0  0
    5.4378   -5.5841    0.0000 C   0  0
    5.0211   -6.2945    0.0000 C   0  0
    5.4278   -7.0085    0.0000 C   0  0
    6.2512   -7.0133    0.0000 C   0  0
    6.6661   -6.2982    0.0000 C   0  0
    6.2569   -5.5871    0.0000 C   0  0
    3.5603   -5.9628    0.0000 C   0  0
    2.8446   -6.3692    0.0000 C   0  0
    2.8398   -7.1904    0.0000 C   0  0
    3.5499   -7.6060    0.0000 C   0  0
    4.2663   -7.1946    0.0000 C   0  0
    4.2676   -6.3748    0.0000 C   0  0
    2.8943   -4.6578    0.0000 C   0  0
    3.1074   -3.8599    0.0000 C   0  0
    2.5236   -3.2783    0.0000 C   0  0
    1.7264   -3.4935    0.0000 C   0  0
    1.5163   -4.2956    0.0000 C   0  0
    2.1017   -4.8737    0.0000 C   0  0
    3.5667   -5.1417    0.0000 N   0  0
    4.2360   -4.6592    0.0000 C   0  0
    3.9792   -3.8709    0.0000 C   0  0
    4.5625   -3.2834    0.0000 C   0  0
    4.3459   -2.4834    0.0000 O   0  0
    5.0292   -4.8709    0.0000 O   0  0
    0.7125   -4.5042    0.0000 C   0  0
   -0.0875   -4.7167    0.0000 N   0  0
    6.6625   -4.8667    0.0000 C   0  0
    5.0084   -7.7209    0.0000 F   0  0
 20 21  1  0
 10 11  1  0
 21 22  2  0
  4  5  1  0
 22 23  1  0
 11 12  2  0
 23 24  2  0
 24 19  1  0
 12  7  1  0
  5  6  1  0
 26 27  2  0
 25 26  1  0
 27 20  1  0
 19 25  1  0
 13 14  2  0
 27 28  1  0
  1  2  1  0
 28 29  2  0
 28  1  1  0
 14 15  1  0
 26 30  1  0
 30  7  1  0
 25 13  1  0
  7  8  2  0
 23 31  1  0
 15 16  2  0
 31 32  3  0
  1  6  1  0
 12 33  1  0
 16 17  1  0
  9 34  1  0
  8  9  1  0
 17 18  2  0
 18 13  1  0
  2  3  1  0
  9 10  2  0
 19 20  2  0
  3  4  1  0
M  END
>  <ID_NEW>
CPDRE1134

>  <pIC50>
7.30102999566398

$$$$

  -MTS-   10172316392D 0   0.00000     0.00000     0

 43 48  0  0  1  0  0  0  0  0999 V2000
    1.2320   -4.5960    0.0000 C   0  0  0  0  0  0  0  0  0  0  0  0
    1.2310   -5.4230    0.0000 C   0  0  0  0  0  0  0  0  0  0  0  0
    1.9450   -5.8360    0.0000 C   0  0  0  0  0  0  0  0  0  0  0  0
    2.6620   -5.4230    0.0000 C   0  0  0  0  0  0  0  0  0  0  0  0
    2.6590   -4.5920    0.0000 C   0  0  0  0  0  0  0  0  0  0  0  0
    1.9440   -4.1830    0.0000 C   0  0  0  0  0  0  0  0  0  0  0  0
    0.5170   -4.1830    0.0000 F   0  0  0  0  0  0  0  0  0  0  0  0
    1.9410   -3.3580    0.0000 C   0  0  0  0  0  0  0  0  0  0  0  0
    3.3720   -4.1770    0.0000 C   0  0  0  0  0  0  0  0  0  0  0  0
    4.0880   -4.5870    0.0000 C   0  0  0  0  0  0  0  0  0  0  0  0
    4.1760   -5.4060    0.0000 C   0  0  0  0  0  0  0  0  0  0  0  0
    4.8390   -4.2480    0.0000 C   0  0  0  0  0  0  0  0  0  0  0  0
    5.0070   -3.4400    0.0000 C   0  0  0  0  0  0  0  0  0  0  0  0
    3.5650   -5.9600    0.0000 C   0  0  0  0  0  0  0  0  0  0  0  0
    2.7800   -5.7080    0.0000 O   0  0  0  0  0  0  0  0  0  0  0  0
    3.7390   -6.7670    0.0000 N   0  0  0  0  0  0  0  0  0  0  0  0
    3.1210   -7.3210    0.0000 C   0  0  0  0  0  0  0  0  0  0  0  0
    3.2930   -8.1250    0.0000 C   0  0  0  0  0  0  0  0  0  0  0  0
    4.0770   -8.3810    0.0000 N   0  0  0  0  0  0  0  0  0  0  0  0
    4.6910   -7.8280    0.0000 C   0  0  2  0  0  0  0  0  0  0  0  0
    4.5190   -7.0180    0.0000 C   0  0  0  0  0  0  0  0  0  0  0  0
    5.3940   -4.8590    0.0000 C   0  0  0  0  0  0  0  0  0  0  0  0
    4.9830   -5.5750    0.0000 N   0  0  0  0  0  0  0  0  0  0  0  0
    5.3950   -6.2840    0.0000 C   0  0  0  0  0  0  0  0  0  0  0  0
    6.2200   -6.2840    0.0000 C   0  0  0  0  0  0  0  0  0  0  0  0
    6.6310   -5.5680    0.0000 C   0  0  0  0  0  0  0  0  0  0  0  0
    6.2170   -4.8530    0.0000 C   0  0  0  0  0  0  0  0  0  0  0  0
    5.7900   -3.1840    0.0000 C   0  0  0  0  0  0  0  0  0  0  0  0
    5.9580   -2.3770    0.0000 C   0  0  0  0  0  0  0  0  0  0  0  0
    5.3420   -1.8270    0.0000 C   0  0  0  0  0  0  0  0  0  0  0  0
    4.5560   -2.0890    0.0000 C   0  0  0  0  0  0  0  0  0  0  0  0
    4.3910   -2.8950    0.0000 C   0  0  0  0  0  0  0  0  0  0  0  0
    5.4750   -8.0830    0.0000 C   0  0  0  0  0  0  0  0  0  0  0  0
    6.0880   -7.5310    0.0000 C   0  0  0  0  0  0  0  0  0  0  0  0
    6.8730   -7.7860    0.0000 N   0  0  0  0  0  0  0  0  0  0  0  0
    5.9170   -6.7240    0.0000 O   0  0  0  0  0  0  0  0  0  0  0  0
    7.4860   -7.2340    0.0000 C   0  0  0  0  0  0  0  0  0  0  0  0
    8.2710   -7.4890    0.0000 C   0  0  0  0  0  0  0  0  0  0  0  0
    8.4390   -8.2960    0.0000 C   0  0  0  0  0  0  0  0  0  0  0  0
    9.2230   -8.5510    0.0000 C   0  0  0  0  0  0  0  0  0  0  0  0
    9.8370   -7.9990    0.0000 C   0  0  0  0  0  0  0  0  0  0  0  0
    9.6620   -7.1890    0.0000 C   0  0  0  0  0  0  0  0  0  0  0  0
    8.8790   -6.9370    0.0000 N   0  0  0  0  0  0  0  0  0  0  0  0
  5  6  2  0  0  0  0
 11 23  1  0  0  0  0
 22 12  2  0  0  0  0
 12 10  1  0  0  0  0
 22 27  1  0  0  0  0
 23 24  1  0  0  0  0
 24 25  2  0  0  0  0
 25 26  1  0  0  0  0
 26 27  2  0  0  0  0
  6  1  1  0  0  0  0
 13 28  2  0  0  0  0
 12 13  1  0  0  0  0
 28 29  1  0  0  0  0
  1  2  2  0  0  0  0
 29 30  2  0  0  0  0
 11 14  1  0  0  0  0
 30 31  1  0  0  0  0
  1  7  1  0  0  0  0
 31 32  2  0  0  0  0
 32 13  1  0  0  0  0
 14 15  2  0  0  0  0
  3  4  2  0  0  0  0
 14 16  1  0  0  0  0
 16 17  1  0  0  0  0
  6  8  1  0  0  0  0
  5  9  1  0  0  0  0
  4  5  1  0  0  0  0
 20 33  1  6  0  0  0
  9 10  1  0  0  0  0
 33 34  1  0  0  0  0
 16 21  1  0  0  0  0
 34 35  1  0  0  0  0
 17 18  1  0  0  0  0
 34 36  2  0  0  0  0
 35 37  1  0  0  0  0
 18 19  1  0  0  0  0
 37 38  1  0  0  0  0
 19 20  1  0  0  0  0
 38 39  2  0  0  0  0
 20 21  1  0  0  0  0
 39 40  1  0  0  0  0
 22 23  1  0  0  0  0
 40 41  2  0  0  0  0
 10 11  2  0  0  0  0
 41 42  1  0  0  0  0
  2  3  1  0  0  0  0
 42 43  2  0  0  0  0
 43 38  1  0  0  0  0
M  END
>  <ID_NEW>
CPDRE1135

>  <pIC50>
7.292429823902062

$$$$

  SciTegic12180813102D

 31 35  0  0  0  0            999 V2000
   -5.7047    0.7439    0.0000 C   0  0
   -5.7036    0.0273    0.0000 C   0  0
   -5.0770   -0.3234    0.0000 C   0  0
   -5.0875    1.1057    0.0000 C   0  0
   -4.4651    0.7550    0.0000 C   0  0
   -4.4556    0.0383    0.0000 C   0  0
   -3.7749   -0.1788    0.0000 N   0  0
   -3.3542    0.4052    0.0000 C   0  0
   -3.7844    0.9814    0.0000 C   0  0
   -3.5443   -0.8553    0.0000 C   0  0
   -4.0211   -1.3958    0.0000 C   0  0
   -3.7947   -2.0764    0.0000 C   0  0
   -3.0914   -2.2167    0.0000 C   0  0
   -2.6144   -1.6804    0.0000 C   0  0
   -2.8451   -0.9997    0.0000 C   0  0
   -3.5672    1.6664    0.0000 C   0  0
   -2.8695    1.8206    0.0000 O   0  0
   -4.0560    2.1969    0.0000 N   0  0
   -3.8387    2.8777    0.0000 C   0  0
   -4.3233    3.4082    0.0000 C   0  0
   -5.0251    3.2538    0.0000 N   0  0
   -5.2382    2.5689    0.0000 C   0  0
   -4.7536    2.0384    0.0000 C   0  0
   -1.4874    0.7229    0.0000 C   0  0
   -1.0295    1.2766    0.0000 C   0  0
   -2.1919    0.8409    0.0000 C   0  0
   -1.2803    1.9480    0.0000 C   0  0
   -2.4427    1.5165    0.0000 C   0  0
   -2.6497    0.2914    0.0000 O   0  0
   -1.9890    2.0660    0.0000 C   0  0
   -1.2364    0.0497    0.0000 F   0  0
 15 10  1  0
  9 16  1  0
 16 17  2  0
 16 18  1  0
 18 19  1  0
 18 23  1  0
 19 20  1  0
 20 21  1  0
 21 22  1  0
 22 23  1  0
  1  2  2  0
  2  3  1  0
  3  6  2  0
  5  4  2  0
  4  1  1  0
  5  6  1  0
 24 25  1  0
 24 26  2  0
 25 27  2  0
 24 31  1  0
 26 28  1  0
 26 29  1  0
 27 30  1  0
 28 30  2  0
  8 29  1  0
  6  7  1  0
  7  8  1  0
  8  9  2  0
  9  5  1  0
  7 10  1  0
 10 11  2  0
 11 12  1  0
 12 13  2  0
 13 14  1  0
 14 15  2  0
M  END
>  <ID_NEW>
CPDRE1136

>  <pIC50>
7.2839966563652

$$$$

  SciTegic12180813472D

 31 35  0  0  0  0            999 V2000
   -4.9940    0.1221    0.0000 C   0  0
   -5.7048   -0.2928    0.0000 C   0  0
   -5.6978   -1.1191    0.0000 C   0  0
   -4.9839   -1.5226    0.0000 C   0  0
   -4.2808   -0.2851    0.0000 C   0  0
   -4.2777   -1.1113    0.0000 C   0  0
   -3.4910   -1.3637    0.0000 N   0  0
   -3.0078   -0.6935    0.0000 C   0  0
   -3.4959   -0.0269    0.0000 C   0  0
   -3.2438    0.7586    0.0000 C   0  0
   -2.4375    0.9331    0.0000 O   0  0
   -3.2332   -2.1474    0.0000 C   0  0
   -3.7141   -2.8175    0.0000 C   0  0
   -3.2268   -3.4832    0.0000 C   0  0
   -2.4430   -3.2254    0.0000 S   0  0
   -2.4461   -2.4004    0.0000 C   0  0
   -3.7980    1.3696    0.0000 N   0  0
   -3.5422    2.1536    0.0000 C   0  0
   -4.0926    2.7633    0.0000 C   0  0
   -4.9001    2.5929    0.0000 N   0  0
   -5.1544    1.8071    0.0000 C   0  0
   -4.6011    1.1916    0.0000 C   0  0
   -2.1828   -0.6905    0.0000 O   0  0
   -1.3583   -0.6875    0.0000 C   0  0
   -0.9453   -1.4023    0.0000 C   0  0
   -0.1216   -1.3997    0.0000 C   0  0
    0.2889   -0.6836    0.0000 C   0  0
   -0.1304    0.0313    0.0000 C   0  0
   -0.9527    0.0251    0.0000 C   0  0
   -1.3566   -2.1175    0.0000 C   0  0
    0.2931   -2.1129    0.0000 F   0  0
 15 16  1  0
 16 12  2  0
 10 17  1  0
 17 18  1  0
 17 22  1  0
 18 19  1  0
 19 20  1  0
 20 21  1  0
 21 22  1  0
  8 23  1  0
 23 24  1  0
 24 25  2  0
 25 26  1  0
 26 27  2  0
 26 31  1  0
 27 28  1  0
 28 29  2  0
 29 24  1  0
 25 30  1  0
  6  7  1  0
  7  8  1  0
  8  9  2  0
  9  5  1  0
  5  1  1  0
  1  2  2  0
  2  3  1  0
  3  4  2  0
  4  6  1  0
  5  6  2  0
  9 10  1  0
 10 11  2  0
  7 12  1  0
 12 13  1  0
 13 14  2  0
 14 15  1  0
M  END
>  <ID_NEW>
CPDRE1137

>  <pIC50>
7.267606240177031

$$$$

  SciTegic12180813082D

 37 41  0  0  0  0            999 V2000
   -5.7056    0.2083    0.0000 C   0  0
   -5.7068   -0.6190    0.0000 C   0  0
   -4.9919   -1.0319    0.0000 C   0  0
   -4.9937    0.6211    0.0000 C   0  0
   -4.2784    0.2120    0.0000 C   0  0
   -4.2735   -0.6145    0.0000 C   0  0
   -3.4860   -0.8653    0.0000 N   0  0
   -3.0041   -0.1938    0.0000 C   0  0
   -3.4939    0.4719    0.0000 C   0  0
   -3.2265   -1.6484    0.0000 C   0  0
   -3.2435    1.2580    0.0000 C   0  0
   -2.4376    1.4342    0.0000 O   0  0
   -3.7781   -2.2600    0.0000 C   0  0
   -3.5191   -3.0425    0.0000 C   0  0
   -2.7104   -3.2100    0.0000 C   0  0
   -2.1611   -2.5887    0.0000 C   0  0
   -2.4229   -1.8086    0.0000 C   0  0
   -3.7991    1.8678    0.0000 N   0  0
   -3.5453    2.6551    0.0000 C   0  0
   -4.0970    3.2636    0.0000 C   0  0
   -4.9042    3.0914    0.0000 N   0  0
   -5.1566    2.3050    0.0000 C   0  0
   -4.6020    1.6908    0.0000 C   0  0
   -1.3526   -2.7527    0.0000 O   0  0
   -0.8063   -2.1344    0.0000 C   0  0
    0.0023   -2.2984    0.0000 C   0  0
    0.5485   -1.6802    0.0000 C   0  0
    1.3571   -1.8442    0.0000 O   0  0
    1.9034   -1.2259    0.0000 C   0  0
   -2.1791   -0.1889    0.0000 O   0  0
   -1.3542   -0.1875    0.0000 C   0  0
   -0.9423   -0.9035    0.0000 C   0  0
   -0.1182   -0.9025    0.0000 C   0  0
    0.2939   -0.1868    0.0000 C   0  0
   -0.1242    0.5293    0.0000 C   0  0
   -0.9470    0.5247    0.0000 C   0  0
   -1.3550   -1.6179    0.0000 C   0  0
 18 19  1  0
 18 23  1  0
 19 20  1  0
 20 21  1  0
 21 22  1  0
 22 23  1  0
 16 24  1  0
 24 25  1  0
 25 26  1  0
 26 27  1  0
 27 28  1  0
 28 29  1  0
  8 30  1  0
 30 31  1  0
 31 32  2  0
 32 33  1  0
 33 34  2  0
 34 35  1  0
 35 36  2  0
 36 31  1  0
 32 37  1  0
  1  2  2  0
  2  3  1  0
  3  6  2  0
  5  4  2  0
  4  1  1  0
  5  6  1  0
  6  7  1  0
  7  8  1  0
  8  9  2  0
  9  5  1  0
  7 10  1  0
  9 11  1  0
 11 12  2  0
 10 13  2  0
 13 14  1  0
 14 15  2  0
 15 16  1  0
 16 17  2  0
 17 10  1  0
 11 18  1  0
M  END
>  <ID_NEW>
CPDRE1138

>  <pIC50>
7.267606240177031

$$$$

  SciTegic12180813512D

 32 36  0  0  0  0            999 V2000
    8.0049   -4.2830    0.0000 C   0  0
    8.7153   -4.6956    0.0000 C   0  0
    9.4256   -4.2868    0.0000 C   0  0
    9.4269   -3.4655    0.0000 C   0  0
    8.7118   -3.0548    0.0000 C   0  0
    8.0043   -3.4660    0.0000 C   0  0
    4.4609   -4.6682    0.0000 C   0  0
    4.8191   -3.0551    0.0000 N   0  0
    4.0266   -3.3038    0.0000 C   0  0
    3.8496   -4.1103    0.0000 C   0  0
    5.2492   -4.4195    0.0000 C   0  0
    5.4263   -3.6131    0.0000 C   0  0
    6.2525   -3.5300    0.0000 C   0  0
    6.5815   -4.2881    0.0000 C   0  0
    5.9634   -4.8376    0.0000 N   0  0
    6.0424   -5.6638    0.0000 C   0  0
    6.6706   -2.8199    0.0000 C   0  0
    6.2595   -2.0986    0.0000 N   0  0
    7.4997   -2.8228    0.0000 O   0  0
    6.7956   -6.0050    0.0000 C   0  0
    6.8787   -6.8271    0.0000 C   0  0
    6.2044   -7.3080    0.0000 C   0  0
    5.4512   -6.9668    0.0000 C   0  0
    5.3681   -6.1447    0.0000 C   0  0
    6.6817   -1.3844    0.0000 C   0  0
    6.2748   -0.6631    0.0000 C   0  0
    5.4458   -0.6602    0.0000 N   0  0
    5.0276   -1.3744    0.0000 C   0  0
    5.4346   -2.0915    0.0000 C   0  0
    7.2916   -4.7000    0.0000 O   0  0
    8.7083   -5.5167    0.0000 Cl  0  0
    8.7041   -2.2292    0.0000 F   0  0
  5  6  2  0
  6  1  1  0
  1  2  2  0
  3  4  2  0
 15 11  1  0
 15 16  1  0
 13 17  1  0
 17 18  1  0
 17 19  2  0
 16 20  2  0
 20 21  1  0
 21 22  2  0
 22 23  1  0
 23 24  2  0
 24 16  1  0
 18 25  1  0
 18 29  1  0
 25 26  1  0
 26 27  1  0
 27 28  1  0
 28 29  1  0
 11  7  1  0
  7 10  2  0
  9  8  2  0
  8 12  1  0
  9 10  1  0
 11 12  2  0
 12 13  1  0
 13 14  2  0
 14 15  1  0
 14 30  1  0
 30  1  1  0
  4  5  1  0
  2 31  1  0
  2  3  1  0
  5 32  1  0
M  END
>  <ID_NEW>
CPDRE1139

>  <pIC50>
7.259637310505756

$$$$

  SciTegic12180813592D

 42 46  0  0  0  0            999 V2000
    6.3160   -5.4971    0.0000 C   0  0
    6.5074   -4.6934    0.0000 N   0  0
    4.9310   -5.1716    0.0000 N   0  0
    5.5321   -5.7348    0.0000 C   0  0
    5.9041   -4.1329    0.0000 C   0  0
    5.1138   -4.3708    0.0000 C   0  0
    4.5072   -8.7965    0.0000 C   0  0
    3.9201   -9.3778    0.0000 C   0  0
    4.1305  -10.1747    0.0000 C   0  0
    4.9274  -10.3916    0.0000 C   0  0
    5.5138   -9.8052    0.0000 C   0  0
    5.3004   -9.0105    0.0000 C   0  0
    4.3296   -6.6535    0.0000 C   0  0
    4.3106   -7.9989    0.0000 N   0  0
    4.8079   -7.3304    0.0000 C   0  0
    3.5214   -7.7311    0.0000 C   0  0
    3.5371   -6.9004    0.0000 C   0  0
    2.8267   -6.4734    0.0000 C   0  0
    2.1001   -6.8757    0.0000 N   0  0
    2.0884   -7.7097    0.0000 C   0  0
    2.7995   -8.1330    0.0000 C   0  0
    1.3611   -8.1047    0.0000 O   0  0
    0.6518   -7.6795    0.0000 C   0  0
    4.3248   -5.8250    0.0000 C   0  0
    3.7332   -5.2333    0.0000 O   0  0
    5.5999   -7.1125    0.0000 C   0  0
    6.3124   -7.5250    0.0000 C   0  0
    6.3086   -8.3494    0.0000 C   0  0
    7.0203   -8.7618    0.0000 C   0  0
    7.7348   -8.3509    0.0000 C   0  0
    7.7331   -7.5234    0.0000 C   0  0
    7.0209   -7.1147    0.0000 C   0  0
    7.0166   -6.2875    0.0000 C   0  0
    8.3124   -6.9333    0.0000 F   0  0
    7.0250   -5.9084    0.0000 C   0  0
    7.7375   -5.4917    0.0000 C   0  0
    7.7333   -4.6667    0.0000 O   0  0
    8.4500   -5.9042    0.0000 N   0  0
    9.1625   -5.4875    0.0000 C   0  0
    9.8750   -5.9000    0.0000 C   0  0
   10.5875   -5.4834    0.0000 O   0  0
   11.3000   -5.8959    0.0000 C   0  0
  3  4  1  0
  3  6  1  0
  4  1  1  0
 13 17  1  0
 16 14  1  0
 14 15  1  0
 15 13  2  0
 16 17  2  0
 17 18  1  0
 18 19  2  0
 19 20  1  0
 20 21  2  0
 21 16  1  0
 20 22  1  0
 22 23  1  0
 14  7  1  0
  7  8  2  0
  9 10  2  0
 10 11  1  0
  8  9  1  0
 13 24  1  0
 11 12  2  0
 12  7  1  0
 24 25  2  0
 15 26  1  0
 26 27  1  0
 27 28  2  0
 28 29  1  0
 29 30  2  0
  1  2  1  0
 30 31  1  0
  2  5  1  0
 31 32  2  0
 32 27  1  0
  5  6  1  0
 32 33  1  0
 31 34  1  0
 24  3  1  0
  1 35  1  0
 35 36  1  0
 36 37  2  0
 36 38  1  0
 38 39  1  0
 39 40  1  0
 40 41  1  0
 41 42  1  0
M  END
>  <ID_NEW>
CPDRE1140

>  <pIC50>
7.259637310505756

$$$$

  SciTegic12180813592D

 40 44  0  0  0  0            999 V2000
   -1.4720    0.3376    0.0000 C   0  0
   -1.0854   -0.3811    0.0000 C   0  0
   -1.0642    1.0445    0.0000 C   0  0
   -2.3084    0.3500    0.0000 O   0  0
   -0.2497   -0.3935    0.0000 C   0  0
   -1.4933   -1.0984    0.0000 C   0  0
   -0.2285    1.0322    0.0000 C   0  0
   -1.4507    1.7736    0.0000 C   0  0
    0.1723    0.3091    0.0000 C   0  0
   -2.6292    2.4458    0.0000 N   0  0
   -1.8292    2.2333    0.0000 C   0  0
   -1.2504    2.8131    0.0000 C   0  0
   -2.2620    3.8293    0.0000 C   0  0
   -2.8504    3.2423    0.0000 C   0  0
   -5.8281    0.9690    0.0000 C   0  0
   -5.8293    0.1374    0.0000 C   0  0
   -5.1104   -0.2754    0.0000 C   0  0
   -5.1122    1.3859    0.0000 N   0  0
   -3.5971    1.2313    0.0000 C   0  0
   -4.3926    0.9726    0.0000 C   0  0
   -4.3900    0.1353    0.0000 C   0  0
   -3.5920   -0.1184    0.0000 N   0  0
   -3.1067    0.5631    0.0000 C   0  0
   -3.1714   -0.8417    0.0000 C   0  0
   -2.3500   -0.8270    0.0000 C   0  0
   -3.5848   -1.5510    0.0000 C   0  0
   -1.9265   -1.5478    0.0000 C   0  0
   -3.1656   -2.2719    0.0000 C   0  0
   -2.3341   -2.2745    0.0000 C   0  0
   -3.3448    2.0208    0.0000 C   0  0
   -3.9031    2.6363    0.0000 O   0  0
   -1.4708    3.6209    0.0000 N   0  0
   -0.5417    2.4042    0.0000 C   0  0
    0.1727    2.8168    0.0000 C   0  0
    0.8873    2.4045    0.0000 N   0  0
    0.1725    3.6418    0.0000 O   0  0
    1.6017    2.8172    0.0000 C   0  0
    2.3162    2.4049    0.0000 C   0  0
    3.0306    2.8176    0.0000 O   0  0
    3.7452    2.4053    0.0000 C   0  0
  1  2  2  0
  1  3  1  0
  1  4  1  0
  2  5  1  0
  2  6  1  0
  3  7  2  0
  3  8  1  0
  7  9  1  0
  5  9  2  0
 13 14  1  0
 21 22  1  0
 22 23  1  0
 23 19  2  0
 24 25  2  0
 24 26  1  0
 24 22  1  0
 25 27  1  0
 26 28  2  0
 27 29  2  0
 28 29  1  0
 18 15  2  0
 20 21  2  0
 16 17  2  0
 17 21  1  0
 15 16  1  0
 20 18  1  0
 19 20  1  0
 19 30  1  0
 23  4  1  0
 30 31  2  0
 30 10  1  0
 10 11  1  0
 12 32  1  0
 13 32  1  0
 10 14  1  0
 11 12  1  0
 12 33  1  0
 33 34  1  0
 34 35  1  0
 34 36  2  0
 35 37  1  0
 37 38  1  0
 38 39  1  0
 39 40  1  0
M  END
>  <ID_NEW>
CPDRE1141

>  <pIC50>
7.251811972993798

$$$$

  SciTegic12180813462D

 32 36  0  0  0  0            999 V2000
    0.6210   -1.5383    0.0000 N   0  0
    0.8766   -0.7507    0.0000 C   0  0
    0.3168   -0.1391    0.0000 C   0  0
   -0.4904   -0.3190    0.0000 N   0  0
   -0.7418   -1.1066    0.0000 C   0  0
   -0.1861   -1.7183    0.0000 C   0  0
    1.1977   -5.0635    0.0000 C   0  0
    0.6461   -5.6795    0.0000 C   0  0
    0.9050   -6.4660    0.0000 C   0  0
    1.7156   -6.6364    0.0000 C   0  0
    2.2673   -6.0162    0.0000 C   0  0
    2.0042   -5.2297    0.0000 C   0  0
    0.9346   -4.2770    0.0000 N   0  0
    1.4179   -3.6044    0.0000 C   0  0
    0.9295   -2.9375    0.0000 C   0  0
    1.1809   -2.1500    0.0000 C   0  0
    1.9881   -1.9784    0.0000 O   0  0
    0.1472   -4.0256    0.0000 C   0  0
    0.1430   -3.2006    0.0000 C   0  0
   -0.5727   -2.7911    0.0000 N   0  0
   -1.2884   -3.2066    0.0000 C   0  0
   -1.2842   -4.0358    0.0000 C   0  0
   -0.5644   -4.4453    0.0000 C   0  0
    2.4751   -2.3335    0.0000 C   0  0
    3.0038   -1.6963    0.0000 C   0  0
    3.8199   -1.8399    0.0000 C   0  0
    4.1074   -2.6165    0.0000 C   0  0
    3.5788   -3.2462    0.0000 C   0  0
    2.7626   -3.1106    0.0000 C   0  0
    3.8663   -4.0237    0.0000 C   0  0
    2.2341   -3.7441    0.0000 O   0  0
    4.9235   -2.7518    0.0000 F   0  0
 18 19  2  0
  8  9  1  0
 19 20  1  0
 11 12  2  0
 20 21  2  0
 12  7  1  0
 21 22  1  0
  7  8  2  0
 22 23  2  0
 23 18  1  0
 14 15  2  0
  9 10  2  0
 13 14  1  0
 15 19  1  0
 18 13  1  0
 13  7  1  0
 27 28  1  0
 25 26  1  0
 28 29  2  0
 29 24  1  0
 24 25  2  0
 28 30  1  0
 26 27  2  0
 29 31  1  0
 27 32  1  0
 14 31  1  0
 15 16  1  0
 16 17  2  0
 16  1  1  0
  3  4  1  0
  4  5  1  0
  5  6  1  0
  1  2  1  0
  1  6  1  0
  2  3  1  0
 10 11  1  0
M  END
>  <ID_NEW>
CPDRE1142

>  <pIC50>
7.244125144327508

$$$$

  SciTegic12180813562D

 37 41  0  0  0  0            999 V2000
    4.6666   -2.0708    0.0000 N   0  0
    5.4666   -2.2833    0.0000 C   0  0
    6.0454   -1.7035    0.0000 C   0  0
    5.0338   -0.6873    0.0000 C   0  0
    4.4454   -1.2743    0.0000 C   0  0
    1.4677   -3.5476    0.0000 C   0  0
    1.4665   -4.3792    0.0000 C   0  0
    2.1854   -4.7920    0.0000 C   0  0
    2.1836   -3.1307    0.0000 N   0  0
    3.6987   -3.2853    0.0000 C   0  0
    2.9032   -3.5440    0.0000 C   0  0
    2.9058   -4.3813    0.0000 C   0  0
    3.7038   -4.6350    0.0000 N   0  0
    4.1891   -3.9535    0.0000 C   0  0
    4.1244   -5.3583    0.0000 C   0  0
    4.9458   -5.3436    0.0000 C   0  0
    3.7110   -6.0676    0.0000 C   0  0
    5.3693   -6.0644    0.0000 C   0  0
    4.1302   -6.7885    0.0000 C   0  0
    4.9617   -6.7911    0.0000 C   0  0
    3.9510   -2.4958    0.0000 C   0  0
    3.3927   -1.8803    0.0000 O   0  0
    5.8250   -0.8957    0.0000 N   0  0
    6.7541   -1.2833    0.0000 C   0  0
    7.3375   -1.8666    0.0000 C   0  0
    7.3333   -2.6916    0.0000 O   0  0
    8.0500   -1.4500    0.0000 O   0  0
    8.7625   -1.8625    0.0000 C   0  0
    4.9000   -3.5333    0.0000 O   0  0
    5.6958   -3.7458    0.0000 C   0  0
    5.9073   -4.5430    0.0000 C   0  0
    6.7023   -4.7557    0.0000 C   0  0
    7.2852   -4.1724    0.0000 C   0  0
    7.0677   -3.3735    0.0000 C   0  0
    6.2731   -3.1646    0.0000 C   0  0
    6.0563   -2.3686    0.0000 C   0  0
    5.3234   -5.1258    0.0000 C   0  0
 17 19  2  0
 18 20  2  0
 19 20  1  0
  9  6  2  0
 11 12  2  0
  7  8  2  0
  8 12  1  0
  6  7  1  0
  3 24  1  0
 11  9  1  0
 24 25  1  0
 10 11  1  0
 25 26  2  0
 10 21  1  0
 25 27  1  0
 27 28  1  0
 21 22  2  0
 21  1  1  0
  1  2  1  0
  3 23  1  0
  4 23  1  0
  1  5  1  0
  2  3  1  0
 14 29  1  0
  4  5  1  0
 29 30  1  0
 12 13  1  0
 30 31  2  0
 13 14  1  0
 31 32  1  0
 14 10  2  0
 32 33  2  0
 15 16  2  0
 33 34  1  0
 15 17  1  0
 34 35  2  0
 35 30  1  0
 15 13  1  0
 35 36  1  0
 16 18  1  0
 31 37  1  0
M  END
>  <ID_NEW>
CPDRE1143

>  <pIC50>
7.244125144327508

$$$$

  SciTegic12180813592D

 44 49  0  0  0  0            999 V2000
   -1.4720    0.3376    0.0000 C   0  0
   -1.0854   -0.3811    0.0000 C   0  0
   -1.0642    1.0445    0.0000 C   0  0
   -2.3084    0.3500    0.0000 O   0  0
   -0.2497   -0.3935    0.0000 C   0  0
   -1.4933   -1.0984    0.0000 C   0  0
   -0.2285    1.0322    0.0000 C   0  0
   -1.4507    1.7736    0.0000 C   0  0
    0.1723    0.3091    0.0000 C   0  0
   -2.6292    2.4458    0.0000 N   0  0
   -1.8292    2.2333    0.0000 C   0  0
   -1.2504    2.8131    0.0000 C   0  0
   -2.2620    3.8293    0.0000 C   0  0
   -2.8504    3.2423    0.0000 C   0  0
   -5.8281    0.9690    0.0000 C   0  0
   -5.8293    0.1374    0.0000 C   0  0
   -5.1104   -0.2754    0.0000 C   0  0
   -5.1122    1.3859    0.0000 N   0  0
   -3.5971    1.2313    0.0000 C   0  0
   -4.3926    0.9726    0.0000 C   0  0
   -4.3900    0.1353    0.0000 C   0  0
   -3.5920   -0.1184    0.0000 N   0  0
   -3.1067    0.5631    0.0000 C   0  0
   -3.1714   -0.8417    0.0000 C   0  0
   -2.3500   -0.8270    0.0000 C   0  0
   -3.5848   -1.5510    0.0000 C   0  0
   -1.9265   -1.5478    0.0000 C   0  0
   -3.1656   -2.2719    0.0000 C   0  0
   -2.3341   -2.2745    0.0000 C   0  0
   -3.3448    2.0208    0.0000 C   0  0
   -3.9031    2.6363    0.0000 O   0  0
   -1.4708    3.6209    0.0000 N   0  0
   -0.5417    2.4042    0.0000 C   0  0
    0.1727    2.8168    0.0000 C   0  0
    0.8873    2.4045    0.0000 N   0  0
    0.1725    3.6418    0.0000 O   0  0
    0.8812    1.5782    0.0000 C   0  0
    1.5917    1.1660    0.0000 C   0  0
    2.3085    1.5752    0.0000 C   0  0
    2.3102    2.4011    0.0000 C   0  0
    1.5952    2.8179    0.0000 C   0  0
    3.0215    1.1602    0.0000 C   0  0
    3.0186    0.3352    0.0000 O   0  0
    3.7374    1.5702    0.0000 N   0  0
  7  9  1  0
  5  9  2  0
 13 14  1  0
 21 22  1  0
 22 23  1  0
 23 19  2  0
 24 25  2  0
 24 26  1  0
 24 22  1  0
 25 27  1  0
 26 28  2  0
 27 29  2  0
 28 29  1  0
 18 15  2  0
 20 21  2  0
 16 17  2  0
 17 21  1  0
 15 16  1  0
 20 18  1  0
 19 20  1  0
 19 30  1  0
 23  4  1  0
 30 31  2  0
 30 10  1  0
 10 11  1  0
 12 32  1  0
 13 32  1  0
 10 14  1  0
 11 12  1  0
 12 33  1  0
 33 34  1  0
 34 35  1  0
 34 36  2  0
 35 37  1  0
  1  2  2  0
  1  3  1  0
  1  4  1  0
  2  5  1  0
 35 41  1  0
 37 38  1  0
 38 39  1  0
 39 40  1  0
 40 41  1  0
  2  6  1  0
 39 42  1  0
  3  7  2  0
 42 43  2  0
  3  8  1  0
 42 44  1  0
M  END
>  <ID_NEW>
CPDRE1144

>  <pIC50>
7.244125144327508

$$$$

  SciTegic12180813542D

 31 35  0  0  0  0            999 V2000
   -3.1431   -2.4584    0.0000 C   0  0
   -3.1443   -3.2857    0.0000 C   0  0
   -2.4294   -3.6986    0.0000 C   0  0
   -2.4312   -2.0456    0.0000 C   0  0
   -0.9245   -2.1961    0.0000 C   0  0
   -1.7159   -2.4547    0.0000 C   0  0
   -1.7133   -3.2879    0.0000 C   0  0
   -0.9195   -3.5416    0.0000 N   0  0
   -0.4341   -2.8643    0.0000 C   0  0
   -0.6722   -1.4107    0.0000 C   0  0
    0.1342   -1.2365    0.0000 N   0  0
   -1.2262   -0.7994    0.0000 O   0  0
    0.3909   -2.8596    0.0000 O   0  0
   -0.6601   -4.3247    0.0000 C   0  0
   -1.1362   -4.9951    0.0000 C   0  0
   -0.6474   -5.6598    0.0000 C   0  0
    0.1358   -5.4004    0.0000 C   0  0
    0.1309   -4.5754    0.0000 C   0  0
    0.6875   -1.8513    0.0000 C   0  0
    1.4907   -1.6798    0.0000 C   0  0
    1.7473   -0.8953    0.0000 N   0  0
    1.1940   -0.2820    0.0000 C   0  0
    0.3843   -0.4532    0.0000 C   0  0
    1.1000   -3.2708    0.0000 C   0  0
    1.0956   -4.0916    0.0000 C   0  0
    1.8037   -4.5028    0.0000 C   0  0
    2.5154   -4.0943    0.0000 C   0  0
    2.5144   -3.2704    0.0000 C   0  0
    1.8057   -2.8629    0.0000 C   0  0
    0.3795   -4.5013    0.0000 C   0  0
    1.5875   -2.0625    0.0000 C   0  0
 17 18  1  0
 18 14  1  0
 11 19  1  0
  1  2  2  0
  2  3  1  0
  3  7  2  0
  6  4  2  0
 11 23  1  0
 19 20  1  0
 20 21  1  0
 21 22  1  0
 22 23  1  0
  4  1  1  0
  6  7  1  0
  5  6  1  0
  7  8  1  0
  8  9  1  0
  9  5  2  0
  5 10  1  0
 13 24  1  0
 10 11  1  0
 24 25  2  0
 10 12  2  0
 25 26  1  0
  9 13  1  0
 26 27  2  0
  8 14  1  0
 27 28  1  0
 14 15  1  0
 28 29  2  0
 29 24  1  0
 15 16  1  0
 25 30  1  0
 16 17  1  0
 29 31  1  0
M  END
>  <ID_NEW>
CPDRE1145

>  <pIC50>
7.236572006437062

$$$$

  SciTegic12180813492D

 36 40  0  0  0  0            999 V2000
   -0.0527   -0.5778    0.0000 N   0  0
    0.4292    0.0937    0.0000 C   0  0
   -0.0606    0.7594    0.0000 C   0  0
    0.2068   -1.3609    0.0000 C   0  0
    0.1898    1.5455    0.0000 C   0  0
    0.9957    1.7217    0.0000 O   0  0
   -0.3448   -1.9725    0.0000 C   0  0
   -0.0858   -2.7550    0.0000 C   0  0
    0.7229   -2.9225    0.0000 C   0  0
    1.2722   -2.3012    0.0000 C   0  0
    1.0104   -1.5211    0.0000 C   0  0
   -0.3658    2.1553    0.0000 N   0  0
   -0.1120    2.9426    0.0000 C   0  0
   -0.6637    3.5511    0.0000 C   0  0
   -1.4709    3.3789    0.0000 N   0  0
   -1.7233    2.5925    0.0000 C   0  0
   -1.1687    1.9783    0.0000 C   0  0
    1.2542    0.0986    0.0000 O   0  0
    2.0791    0.1000    0.0000 C   0  0
    2.4910   -0.6160    0.0000 C   0  0
    3.3151   -0.6150    0.0000 C   0  0
    3.7272    0.1007    0.0000 C   0  0
    3.3091    0.8168    0.0000 C   0  0
    2.4863    0.8122    0.0000 C   0  0
    2.0783   -1.3304    0.0000 C   0  0
   -0.8402   -0.3270    0.0000 C   0  0
   -0.8418    0.4972    0.0000 C   0  0
   -1.5552    0.9061    0.0000 C   0  0
   -2.2675    0.4920    0.0000 C   0  0
   -2.2619   -0.3353    0.0000 C   0  0
   -1.5480   -0.7405    0.0000 C   0  0
   -2.9734   -0.7528    0.0000 O   0  0
   -3.6907   -0.3453    0.0000 C   0  0
   -4.4023   -0.7629    0.0000 C   0  0
   -5.1196   -0.3554    0.0000 O   0  0
   -5.8312   -0.7729    0.0000 C   0  0
  5  6  2  0
  4  7  2  0
  7  8  1  0
  8  9  2  0
  9 10  1  0
 10 11  2  0
 11  4  1  0
  5 12  1  0
 12 13  1  0
 12 17  1  0
 13 14  1  0
 14 15  1  0
 15 16  1  0
 16 17  1  0
  2 18  1  0
 18 19  1  0
 19 20  2  0
 20 21  1  0
 21 22  2  0
 22 23  1  0
 23 24  2  0
 24 19  1  0
 20 25  1  0
 26 27  2  0
 27 28  1  0
 28 29  2  0
 29 30  1  0
 30 31  2  0
 31 26  1  0
 26  1  1  0
  1  2  1  0
  2  3  2  0
  3 27  1  0
  1  4  1  0
  3  5  1  0
 30 32  1  0
 32 33  1  0
 33 34  1  0
 34 35  1  0
 35 36  1  0
M  END
>  <ID_NEW>
CPDRE1146

>  <pIC50>
7.214670164989232

$$$$

  -MTS-   10172316392D 0   0.00000     0.00000     0

 33 37  0  0  1  0  0  0  0  0999 V2000
    8.4830   -4.7730    0.0000 C   0  0  0  0  0  0  0  0  0  0  0  0
    8.8900   -5.4850    0.0000 C   0  0  0  0  0  0  0  0  0  0  0  0
    9.7070   -5.4870    0.0000 C   0  0  0  0  0  0  0  0  0  0  0  0
   10.1200   -4.7790    0.0000 C   0  0  0  0  0  0  0  0  0  0  0  0
    9.7080   -4.0670    0.0000 C   0  0  0  0  0  0  0  0  0  0  0  0
    8.8920   -4.0680    0.0000 C   0  0  0  0  0  0  0  0  0  0  0  0
    6.0670   -2.7370    0.0000 N   0  0  0  0  0  0  0  0  0  0  0  0
    6.2790   -1.9370    0.0000 C   0  0  0  0  0  0  0  0  0  0  0  0
    5.6960   -1.3570    0.0000 C   0  0  1  0  0  0  0  0  0  0  0  0
    4.8970   -1.5700    0.0000 N   0  0  0  0  0  0  0  0  0  0  0  0
    4.6840   -2.3700    0.0000 C   0  0  0  0  0  0  0  0  0  0  0  0
    5.2710   -2.9570    0.0000 C   0  0  0  0  0  0  0  0  0  0  0  0
    4.1840   -4.3730    0.0000 C   0  0  0  0  0  0  0  0  0  0  0  0
    4.1830   -5.2000    0.0000 C   0  0  0  0  0  0  0  0  0  0  0  0
    4.8980   -5.6130    0.0000 C   0  0  0  0  0  0  0  0  0  0  0  0
    4.8960   -3.9600    0.0000 N   0  0  0  0  0  0  0  0  0  0  0  0
    6.4030   -4.1100    0.0000 C   0  0  0  0  0  0  0  0  0  0  0  0
    5.6110   -4.3690    0.0000 C   0  0  0  0  0  0  0  0  0  0  0  0
    5.6140   -5.2020    0.0000 C   0  0  0  0  0  0  0  0  0  0  0  0
    6.4080   -5.4560    0.0000 N   0  0  0  0  0  0  0  0  0  0  0  0
    6.8930   -4.7790    0.0000 C   0  0  0  0  0  0  0  0  0  0  0  0
    6.8280   -6.1750    0.0000 C   0  0  0  0  0  0  0  0  0  0  0  0
    7.6460   -6.1600    0.0000 C   0  0  0  0  0  0  0  0  0  0  0  0
    6.4150   -6.8800    0.0000 C   0  0  0  0  0  0  0  0  0  0  0  0
    8.0650   -6.8770    0.0000 C   0  0  0  0  0  0  0  0  0  0  0  0
    6.8340   -7.5970    0.0000 C   0  0  0  0  0  0  0  0  0  0  0  0
    7.6620   -7.5990    0.0000 C   0  0  0  0  0  0  0  0  0  0  0  0
    6.6550   -3.3250    0.0000 C   0  0  0  0  0  0  0  0  0  0  0  0
    7.4610   -3.1510    0.0000 O   0  0  0  0  0  0  0  0  0  0  0  0
    6.1040   -0.6370    0.0000 C   0  0  0  0  0  0  0  0  0  0  0  0
    7.6870   -4.5580    0.0000 O   0  0  0  0  0  0  0  0  0  0  0  0
    8.4750   -6.1970    0.0000 C   0  0  0  0  0  0  0  0  0  0  0  0
    8.4800   -3.3530    0.0000 C   0  0  0  0  0  0  0  0  0  0  0  0
  6  1  1  0  0  0  0
  1  2  2  0  0  0  0
  3  4  2  0  0  0  0
 22 23  1  0  0  0  0
 22 24  1  0  0  0  0
 22 20  1  0  0  0  0
 23 25  1  0  0  0  0
 24 26  1  0  0  0  0
 25 27  1  0  0  0  0
 26 27  1  0  0  0  0
 16 13  2  0  0  0  0
 18 19  2  0  0  0  0
 14 15  2  0  0  0  0
 15 19  1  0  0  0  0
 13 14  1  0  0  0  0
 18 16  1  0  0  0  0
 17 18  1  0  0  0  0
 17 28  1  0  0  0  0
 28 29  2  0  0  0  0
 28  7  1  0  0  0  0
  9 10  1  0  0  0  0
 10 11  1  0  0  0  0
 11 12  1  0  0  0  0
  7  8  1  0  0  0  0
  7 12  1  0  0  0  0
  8  9  1  0  0  0  0
 19 20  1  0  0  0  0
  9 30  1  1  0  0  0
 20 21  1  0  0  0  0
 21 17  2  0  0  0  0
  4  5  1  0  0  0  0
 21 31  1  0  0  0  0
 31  1  1  0  0  0  0
  2  3  1  0  0  0  0
  2 32  1  0  0  0  0
  5  6  2  0  0  0  0
  6 33  1  0  0  0  0
M  END
>  <ID_NEW>
CPDRE1147

>  <pIC50>
7.214670164989232

$$$$

  SciTegic12180813082D

 33 37  0  0  0  0            999 V2000
   -3.4902   -1.2986    0.0000 N   0  0
   -3.0083   -0.6271    0.0000 C   0  0
   -3.4981    0.0386    0.0000 C   0  0
   -3.2307   -2.0817    0.0000 C   0  0
   -3.2477    0.8247    0.0000 C   0  0
   -2.4418    1.0009    0.0000 O   0  0
   -3.7823   -2.6933    0.0000 C   0  0
   -3.5233   -3.4758    0.0000 C   0  0
   -2.7146   -3.6433    0.0000 C   0  0
   -2.1653   -3.0220    0.0000 C   0  0
   -2.4271   -2.2419    0.0000 C   0  0
   -3.8033    1.4345    0.0000 N   0  0
   -3.5495    2.2218    0.0000 C   0  0
   -4.1012    2.8303    0.0000 C   0  0
   -4.9084    2.6581    0.0000 N   0  0
   -5.1608    1.8717    0.0000 C   0  0
   -4.6062    1.2575    0.0000 C   0  0
   -2.1833   -0.6222    0.0000 O   0  0
   -1.3584   -0.6208    0.0000 C   0  0
   -0.9465   -1.3368    0.0000 C   0  0
   -0.1224   -1.3358    0.0000 C   0  0
    0.2897   -0.6201    0.0000 C   0  0
   -0.1284    0.0960    0.0000 C   0  0
   -0.9512    0.0914    0.0000 C   0  0
   -4.2777   -1.0478    0.0000 C   0  0
   -4.2793   -0.2236    0.0000 C   0  0
   -4.9927    0.1853    0.0000 C   0  0
   -5.7050   -0.2288    0.0000 C   0  0
   -5.6994   -1.0561    0.0000 C   0  0
   -4.9855   -1.4613    0.0000 C   0  0
   -1.8819   -1.6227    0.0000 O   0  0
   -1.0731   -1.7852    0.0000 C   0  0
   -1.3672    0.8038    0.0000 C   0  0
  2 18  1  0
 18 19  1  0
 19 20  2  0
 20 21  1  0
 21 22  2  0
 22 23  1  0
 23 24  2  0
 24 19  1  0
 25 26  2  0
 26 27  1  0
 27 28  2  0
 28 29  1  0
 29 30  2  0
 30 25  1  0
 11 31  1  0
 31 32  1  0
 24 33  1  0
 25  1  1  0
  1  2  1  0
  2  3  2  0
  3 26  1  0
  1  4  1  0
  3  5  1  0
  5  6  2  0
  4  7  2  0
  7  8  1  0
  8  9  2  0
  9 10  1  0
 10 11  2  0
 11  4  1  0
  5 12  1  0
 12 13  1  0
 12 17  1  0
 13 14  1  0
 14 15  1  0
 15 16  1  0
 16 17  1  0
M  END
>  <ID_NEW>
CPDRE1148

>  <pIC50>
7.207608310501745

$$$$

  SciTegic12180813102D

 31 35  0  0  0  0            999 V2000
   -5.7047    0.7439    0.0000 C   0  0
   -5.7036    0.0273    0.0000 C   0  0
   -5.0770   -0.3234    0.0000 C   0  0
   -5.0875    1.1057    0.0000 C   0  0
   -4.4651    0.7550    0.0000 C   0  0
   -4.4556    0.0383    0.0000 C   0  0
   -3.7749   -0.1788    0.0000 N   0  0
   -3.3542    0.4052    0.0000 C   0  0
   -3.7844    0.9814    0.0000 C   0  0
   -3.5443   -0.8553    0.0000 C   0  0
   -4.0211   -1.3958    0.0000 C   0  0
   -3.7947   -2.0764    0.0000 C   0  0
   -3.0914   -2.2167    0.0000 C   0  0
   -2.6144   -1.6804    0.0000 C   0  0
   -2.8451   -0.9997    0.0000 C   0  0
   -3.5672    1.6664    0.0000 C   0  0
   -2.8695    1.8206    0.0000 O   0  0
   -4.0560    2.1969    0.0000 N   0  0
   -3.8387    2.8777    0.0000 C   0  0
   -4.3233    3.4082    0.0000 C   0  0
   -5.0251    3.2538    0.0000 N   0  0
   -5.2382    2.5689    0.0000 C   0  0
   -4.7536    2.0384    0.0000 C   0  0
   -1.4874    0.7229    0.0000 C   0  0
   -1.0295    1.2766    0.0000 C   0  0
   -2.1919    0.8409    0.0000 C   0  0
   -1.2803    1.9480    0.0000 C   0  0
   -0.3208    1.1586    0.0000 F   0  0
   -2.4427    1.5165    0.0000 C   0  0
   -2.6497    0.2914    0.0000 O   0  0
   -1.9890    2.0660    0.0000 C   0  0
 18 23  1  0
 19 20  1  0
 20 21  1  0
 21 22  1  0
 22 23  1  0
  1  2  2  0
  2  3  1  0
  3  6  2  0
  5  4  2  0
  4  1  1  0
  5  6  1  0
 24 25  1  0
 24 26  2  0
 25 27  2  0
 25 28  1  0
 26 29  1  0
 26 30  1  0
 27 31  1  0
 29 31  2  0
  8 30  1  0
  6  7  1  0
  7  8  1  0
  8  9  2  0
  9  5  1  0
  7 10  1  0
 10 11  2  0
 11 12  1  0
 12 13  2  0
 13 14  1  0
 14 15  2  0
 15 10  1  0
  9 16  1  0
 16 17  2  0
 16 18  1  0
 18 19  1  0
M  END
>  <ID_NEW>
CPDRE1149

>  <pIC50>
7.200659450546417

$$$$

  SciTegic12180813452D

 32 36  0  0  0  0            999 V2000
   -5.7056    1.5292    0.0000 C   0  0
   -5.7068    0.7018    0.0000 C   0  0
   -4.9919    0.2889    0.0000 C   0  0
   -4.9937    1.9419    0.0000 C   0  0
   -4.2824    1.5291    0.0000 C   0  0
   -4.2776    0.7060    0.0000 C   0  0
   -3.4932    0.4561    0.0000 N   0  0
   -3.0132    1.1249    0.0000 C   0  0
   -3.5010    1.7880    0.0000 C   0  0
   -3.2507    2.5741    0.0000 C   0  0
   -2.4447    2.7504    0.0000 N   0  0
   -3.8063    3.1840    0.0000 O   0  0
   -1.8905    2.1373    0.0000 C   0  0
   -1.0877    2.3109    0.0000 C   0  0
   -0.8332    3.0960    0.0000 N   0  0
   -1.3880    3.7079    0.0000 C   0  0
   -2.1973    3.5347    0.0000 C   0  0
   -3.5000   -0.3667    0.0000 C   0  0
   -4.2183   -0.7703    0.0000 C   0  0
   -4.2254   -1.5924    0.0000 C   0  0
   -3.5157   -2.0105    0.0000 C   0  0
   -2.7973   -1.6006    0.0000 C   0  0
   -2.7937   -0.7799    0.0000 C   0  0
   -2.2208    0.9125    0.0000 O   0  0
   -1.5083    0.5041    0.0000 C   0  0
   -1.5085   -0.3181    0.0000 C   0  0
   -0.7969   -0.7264    0.0000 C   0  0
   -0.0860   -0.3135    0.0000 C   0  0
   -0.0912    0.5119    0.0000 C   0  0
   -0.8034    0.9165    0.0000 C   0  0
   -0.7947   -1.5514    0.0000 F   0  0
   -2.2225   -0.7315    0.0000 F   0  0
 15 16  1  0
 16 17  1  0
  7 18  1  0
 18 19  2  0
 19 20  1  0
 20 21  2  0
 21 22  1  0
 22 23  2  0
 23 18  1  0
  8 24  1  0
 24 25  1  0
 25 26  2  0
 26 27  1  0
 27 28  2  0
 28 29  1  0
 29 30  2  0
 30 25  1  0
 27 31  1  0
  1  2  2  0
  2  3  1  0
  3  6  2  0
  5  4  2  0
  4  1  1  0
  5  6  1  0
  6  7  1  0
  7  8  1  0
  8  9  2  0
  9  5  1  0
  9 10  1  0
 10 11  1  0
 26 32  1  0
 10 12  2  0
 11 13  1  0
 11 17  1  0
 13 14  1  0
 14 15  1  0
M  END
>  <ID_NEW>
CPDRE1150

>  <pIC50>
7.200659450546417

$$$$

  SciTegic12180813072D

 32 36  0  0  0  0            999 V2000
   -5.7588    0.9155    0.0000 C   0  0
   -5.8303    0.0937    0.0000 C   0  0
   -5.1460   -0.3691    0.0000 C   0  0
   -5.0116    1.2713    0.0000 C   0  0
   -4.3359    0.8051    0.0000 C   0  0
   -4.3949   -0.0179    0.0000 C   0  0
   -3.6392   -0.3361    0.0000 N   0  0
   -3.0988    0.2902    0.0000 C   0  0
   -3.5312    0.9947    0.0000 C   0  0
   -3.4409   -1.1373    0.0000 C   0  0
   -4.0451   -1.7060    0.0000 C   0  0
   -3.8513   -2.5110    0.0000 C   0  0
   -3.0612   -2.7426    0.0000 C   0  0
   -2.4612   -2.1777    0.0000 C   0  0
   -2.6552   -1.3727    0.0000 C   0  0
   -3.2122    1.7588    0.0000 C   0  0
   -2.3980    1.8626    0.0000 O   0  0
   -3.7202    2.4158    0.0000 N   0  0
   -3.4015    3.1756    0.0000 C   0  0
   -3.9052    3.8321    0.0000 C   0  0
   -4.7238    3.7244    0.0000 N   0  0
   -5.0384    2.9642    0.0000 C   0  0
   -4.5350    2.3035    0.0000 C   0  0
   -2.3007    0.0888    0.0000 O   0  0
   -1.5077    0.3074    0.0000 C   0  0
   -0.9264   -0.2755    0.0000 C   0  0
   -0.1331   -0.0631    0.0000 C   0  0
    0.0802    0.7317    0.0000 C   0  0
   -0.5061    1.3140    0.0000 C   0  0
   -1.2973    1.0985    0.0000 C   0  0
   -2.0167    1.5125    0.0000 C   0  0
   -1.3458   -0.9875    0.0000 C   0  0
 19 20  1  0
 20 21  1  0
 21 22  1  0
 22 23  1  0
  1  2  2  0
  2  3  1  0
  3  6  2  0
  5  4  2  0
  4  1  1  0
  5  6  1  0
  8 24  1  0
  6  7  1  0
  7  8  1  0
  8  9  2  0
  9  5  1  0
  7 10  1  0
 10 11  2  0
 11 12  1  0
 12 13  2  0
 13 14  1  0
 14 15  2  0
 15 10  1  0
  9 16  1  0
 16 17  2  0
 16 18  1  0
 18 19  1  0
 18 23  1  0
 24 25  1  0
 25 26  2  0
 26 27  1  0
 27 28  2  0
 28 29  1  0
 29 30  2  0
 30 25  1  0
 30 31  1  0
 26 32  1  0
M  END
>  <ID_NEW>
CPDRE1151

>  <pIC50>
7.193820026016112

$$$$

  SciTegic12180813562D

 37 41  0  0  0  0            999 V2000
    5.0444   -4.6416    0.0000 C   0  0
    5.0391   -5.4648    0.0000 C   0  0
    5.7482   -5.8792    0.0000 C   0  0
    6.4631   -5.4715    0.0000 C   0  0
    6.4645   -4.6452    0.0000 C   0  0
    5.7547   -4.2345    0.0000 C   0  0
    3.2282   -5.6882    0.0000 C   0  0
    2.6411   -6.2694    0.0000 C   0  0
    2.8515   -7.0664    0.0000 C   0  0
    3.6484   -7.2832    0.0000 C   0  0
    4.2348   -6.6969    0.0000 C   0  0
    4.0214   -5.9022    0.0000 C   0  0
    4.2250   -2.6250    0.0000 N   0  0
    4.8083   -3.2083    0.0000 C   0  0
    5.6008   -2.9960    0.0000 C   0  0
    5.8163   -2.2003    0.0000 N   0  0
    5.2330   -1.6170    0.0000 C   0  0
    4.4341   -1.8293    0.0000 C   0  0
    3.0195   -4.8950    0.0000 N   0  0
    3.5064   -4.2286    0.0000 C   0  0
    3.0231   -3.5596    0.0000 C   0  0
    2.2375   -3.8125    0.0000 C   0  0
    2.2352   -4.6379    0.0000 C   0  0
    0.8111   -3.8166    0.0000 C   0  0
    0.8099   -4.6440    0.0000 C   0  0
    1.5247   -5.0569    0.0000 C   0  0
    1.5229   -3.4039    0.0000 N   0  0
    0.0917   -5.0500    0.0000 O   0  0
   -0.6250   -4.6375    0.0000 C   0  0
   -1.3417   -5.0458    0.0000 C   0  0
   -1.3458   -5.8708    0.0000 O   0  0
   -2.0583   -4.6333    0.0000 O   0  0
    4.3292   -4.2250    0.0000 O   0  0
    3.4292   -2.8417    0.0000 C   0  0
    3.0125   -2.1250    0.0000 O   0  0
    5.7500   -3.4083    0.0000 C   0  0
    4.2375   -5.6750    0.0000 C   0  0
 10 11  1  0
  5  6  2  0
 19 20  1  0
 21 22  1  0
 23 19  1  0
 11 12  2  0
 12  7  1  0
 24 25  2  0
 13 14  1  0
 25 26  1  0
 26 23  2  0
  6  1  1  0
 22 27  2  0
 27 24  1  0
  1  2  2  0
 25 28  1  0
  3  4  2  0
 28 29  1  0
  7  8  2  0
 29 30  1  0
 30 31  2  0
  8  9  1  0
 30 32  1  0
 19  7  1  0
 13 18  1  0
 20 33  1  0
 33  1  1  0
 14 15  1  0
 21 34  1  0
 15 16  1  0
 34 35  2  0
 34 13  1  0
 16 17  1  0
  6 36  1  0
 17 18  1  0
  2 37  1  0
 22 23  1  0
  4  5  1  0
  9 10  2  0
 20 21  2  0
  2  3  1  0
M  END
>  <ID_NEW>
CPDRE1152

>  <pIC50>
7.187086643357144

$$$$

  SciTegic12180813592D

 42 46  0  0  0  0            999 V2000
   -1.4720    0.3376    0.0000 C   0  0
   -1.0854   -0.3811    0.0000 C   0  0
   -1.0642    1.0445    0.0000 C   0  0
   -2.3084    0.3500    0.0000 O   0  0
   -0.2497   -0.3935    0.0000 C   0  0
   -1.4933   -1.0984    0.0000 C   0  0
   -0.2285    1.0322    0.0000 C   0  0
   -1.4507    1.7736    0.0000 C   0  0
    0.1723    0.3091    0.0000 C   0  0
   -2.6292    2.4458    0.0000 N   0  0
   -1.8292    2.2333    0.0000 C   0  0
   -1.2504    2.8131    0.0000 C   0  0
   -2.2620    3.8293    0.0000 C   0  0
   -2.8504    3.2423    0.0000 C   0  0
   -5.8281    0.9690    0.0000 C   0  0
   -5.8293    0.1374    0.0000 C   0  0
   -5.1104   -0.2754    0.0000 C   0  0
   -5.1122    1.3859    0.0000 N   0  0
   -3.5971    1.2313    0.0000 C   0  0
   -4.3926    0.9726    0.0000 C   0  0
   -4.3900    0.1353    0.0000 C   0  0
   -3.5920   -0.1184    0.0000 N   0  0
   -3.1067    0.5631    0.0000 C   0  0
   -3.1714   -0.8417    0.0000 C   0  0
   -2.3500   -0.8270    0.0000 C   0  0
   -3.5848   -1.5510    0.0000 C   0  0
   -1.9265   -1.5478    0.0000 C   0  0
   -3.1656   -2.2719    0.0000 C   0  0
   -2.3341   -2.2745    0.0000 C   0  0
   -3.3448    2.0208    0.0000 C   0  0
   -3.9031    2.6363    0.0000 O   0  0
   -1.4708    3.6209    0.0000 N   0  0
   -0.5417    2.4042    0.0000 C   0  0
    0.1727    2.8168    0.0000 C   0  0
    0.8873    2.4045    0.0000 N   0  0
    0.1725    3.6418    0.0000 O   0  0
    1.6017    2.8172    0.0000 C   0  0
    2.3162    2.4049    0.0000 C   0  0
    3.0306    2.8176    0.0000 S   0  0
    3.7452    2.4053    0.0000 O   0  0
    3.0304    3.6426    0.0000 C   0  0
    3.2443    2.0208    0.0000 O   0  0
  1  3  1  0
  1  4  1  0
  2  5  1  0
  2  6  1  0
  3  7  2  0
  3  8  1  0
  7  9  1  0
  5  9  2  0
 13 14  1  0
 21 22  1  0
 22 23  1  0
 23 19  2  0
 24 25  2  0
 24 26  1  0
 24 22  1  0
 25 27  1  0
 26 28  2  0
 27 29  2  0
 28 29  1  0
 18 15  2  0
 20 21  2  0
 16 17  2  0
 17 21  1  0
 15 16  1  0
 20 18  1  0
 19 20  1  0
 19 30  1  0
 23  4  1  0
 30 31  2  0
 30 10  1  0
 10 11  1  0
 12 32  1  0
 13 32  1  0
 10 14  1  0
 11 12  1  0
 12 33  1  0
 33 34  1  0
 34 35  1  0
 34 36  2  0
 35 37  1  0
 37 38  1  0
 38 39  1  0
 39 40  2  0
 39 41  1  0
  1  2  2  0
 39 42  2  0
M  END
>  <ID_NEW>
CPDRE1153

>  <pIC50>
7.187086643357144

$$$$

  SciTegic12180814002D

 43 47  0  0  0  0            999 V2000
   -1.3931   -6.1374    0.0000 C   0  0
   -1.3943   -6.9647    0.0000 C   0  0
   -0.6794   -7.3776    0.0000 C   0  0
   -0.6812   -5.7246    0.0000 C   0  0
    0.8255   -5.8751    0.0000 C   0  0
    0.0341   -6.1337    0.0000 C   0  0
    0.0367   -6.9669    0.0000 C   0  0
    0.8305   -7.2206    0.0000 N   0  0
    1.3159   -6.5433    0.0000 C   0  0
    1.0778   -5.0897    0.0000 C   0  0
    0.5238   -4.4784    0.0000 O   0  0
    1.0899   -8.0038    0.0000 C   0  0
    0.5393   -8.6144    0.0000 C   0  0
    0.7981   -9.3970    0.0000 C   0  0
    1.6068   -9.5646    0.0000 C   0  0
    2.1562   -8.9434    0.0000 C   0  0
    1.8945   -8.1633    0.0000 C   0  0
    2.1409   -6.5386    0.0000 C   0  0
    1.7875   -4.6708    0.0000 N   0  0
    2.5050   -5.0781    0.0000 C   0  0
    3.2126   -4.6627    0.0000 C   0  0
    3.2089   -3.8382    0.0000 N   0  0
    2.4913   -3.4308    0.0000 C   0  0
    1.7775   -3.8480    0.0000 C   0  0
    2.4833   -2.6041    0.0000 C   0  0
    1.7649   -2.1986    0.0000 C   0  0
    1.7568   -1.3736    0.0000 N   0  0
    1.0544   -2.6180    0.0000 O   0  0
   -2.1091   -7.3767    0.0000 O   0  0
   -2.8233   -6.9636    0.0000 C   0  0
    2.5575   -7.2507    0.0000 C   0  0
    2.1472   -7.9668    0.0000 C   0  0
    2.5631   -8.6784    0.0000 C   0  0
    3.3889   -8.6742    0.0000 C   0  0
    3.7972   -7.9524    0.0000 C   0  0
    3.3789   -7.2437    0.0000 C   0  0
    3.7850   -6.5255    0.0000 C   0  0
    4.6221   -7.9447    0.0000 F   0  0
    2.4672   -0.9541    0.0000 C   0  0
    2.4591   -0.1291    0.0000 C   0  0
    3.1695    0.2904    0.0000 C   0  0
    3.1614    1.1154    0.0000 O   0  0
    3.8718    1.5349    0.0000 C   0  0
  7  8  1  0
 15 16  1  0
  8  9  1  0
 16 17  2  0
 17 12  1  0
  9  5  2  0
  5 10  1  0
 10 19  1  0
 19 20  1  0
 19 24  1  0
 20 21  1  0
 21 22  1  0
 22 23  1  0
 23 24  1  0
 23 25  1  0
 25 26  1  0
 26 27  1  0
 26 28  2  0
  2 29  1  0
 29 30  1  0
 18 31  1  0
 31 32  2  0
 32 33  1  0
 33 34  2  0
 34 35  1  0
 35 36  2  0
 36 31  1  0
 36 37  1  0
 35 38  1  0
 27 39  1  0
 10 11  2  0
  9 18  1  0
  1  2  2  0
  2  3  1  0
  3  7  2  0
  6  4  2  0
 39 40  1  0
  8 12  1  0
  4  1  1  0
 12 13  2  0
  6  7  1  0
 13 14  1  0
 40 41  1  0
  5  6  1  0
 41 42  1  0
 14 15  2  0
 42 43  1  0
M  END
>  <ID_NEW>
CPDRE1154

>  <pIC50>
7.180456064458132

$$$$

  SciTegic12180814002D

 43 47  0  0  0  0            999 V2000
   -0.3597   -5.1916    0.0000 C   0  0
   -0.3609   -6.0189    0.0000 C   0  0
    0.3540   -6.4318    0.0000 C   0  0
    0.3522   -4.7788    0.0000 C   0  0
    1.8589   -4.9293    0.0000 C   0  0
    1.0675   -5.1879    0.0000 C   0  0
    1.0701   -6.0211    0.0000 C   0  0
    1.8639   -6.2748    0.0000 N   0  0
    2.3493   -5.5975    0.0000 C   0  0
    2.1112   -4.1439    0.0000 C   0  0
    1.5572   -3.5326    0.0000 O   0  0
    2.1233   -7.0580    0.0000 C   0  0
    1.5727   -7.6686    0.0000 C   0  0
    1.8315   -8.4512    0.0000 C   0  0
    2.6402   -8.6188    0.0000 C   0  0
    3.1896   -7.9976    0.0000 C   0  0
    2.9279   -7.2175    0.0000 C   0  0
    3.1743   -5.5928    0.0000 C   0  0
    2.8209   -3.7250    0.0000 N   0  0
    3.5384   -4.1323    0.0000 C   0  0
    4.2460   -3.7169    0.0000 C   0  0
    4.2423   -2.8924    0.0000 N   0  0
    3.5247   -2.4850    0.0000 C   0  0
    2.8109   -2.9022    0.0000 C   0  0
    3.5167   -1.6583    0.0000 C   0  0
    2.7983   -1.2528    0.0000 C   0  0
    2.7902   -0.4278    0.0000 N   0  0
    2.0878   -1.6722    0.0000 O   0  0
   -1.0757   -6.4309    0.0000 O   0  0
   -1.7899   -6.0178    0.0000 C   0  0
    3.5909   -6.3049    0.0000 C   0  0
    3.1806   -7.0210    0.0000 C   0  0
    3.5965   -7.7326    0.0000 C   0  0
    4.4223   -7.7284    0.0000 C   0  0
    4.8306   -7.0066    0.0000 C   0  0
    4.4123   -6.2979    0.0000 C   0  0
    4.8184   -5.5797    0.0000 C   0  0
    5.6555   -6.9989    0.0000 F   0  0
    3.5006   -0.0083    0.0000 C   0  0
    3.4925    0.8167    0.0000 C   0  0
    4.2029    1.2361    0.0000 C   0  0
    4.9167    1.6560    0.0000 N   0  0
    2.0717   -0.0223    0.0000 C   0  0
 15 16  1  0
  8  9  1  0
 16 17  2  0
 17 12  1  0
  9  5  2  0
  5 10  1  0
 10 19  1  0
 19 20  1  0
 19 24  1  0
 20 21  1  0
 21 22  1  0
 22 23  1  0
 23 24  1  0
 23 25  1  0
 25 26  1  0
 26 27  1  0
 26 28  2  0
  2 29  1  0
 29 30  1  0
 18 31  1  0
 31 32  2  0
 32 33  1  0
 33 34  2  0
 34 35  1  0
 35 36  2  0
 36 31  1  0
 36 37  1  0
 35 38  1  0
 10 11  2  0
  9 18  1  0
  1  2  2  0
  2  3  1  0
  3  7  2  0
  6  4  2  0
  8 12  1  0
  4  1  1  0
 12 13  2  0
  6  7  1  0
 13 14  1  0
 27 39  1  0
  5  6  1  0
 39 40  1  0
 14 15  2  0
 40 41  1  0
  7  8  1  0
 41 42  3  0
 27 43  1  0
M  END
>  <ID_NEW>
CPDRE1155

>  <pIC50>
7.180456064458132

$$$$

  SciTegic12180813512D

 33 37  0  0  0  0            999 V2000
    0.1006    0.5823    0.0000 C   0  0
    0.8016    1.0218    0.0000 C   0  0
    0.7706    1.8467    0.0000 C   0  0
    0.0392    2.2331    0.0000 C   0  0
   -0.6623    1.7885    0.0000 C   0  0
   -0.6277    0.9651    0.0000 C   0  0
   -1.3248    0.5238    0.0000 O   0  0
    0.1320   -0.2421    0.0000 C   0  0
    0.0067    3.0574    0.0000 F   0  0
   -4.3834    3.4160    0.0000 N   0  0
   -4.3859    2.5901    0.0000 C   0  0
   -3.6574    3.8315    0.0000 C   0  0
   -3.6707    2.1708    0.0000 C   0  0
   -2.9411    3.4169    0.0000 C   0  0
   -2.9448    2.5863    0.0000 N   0  0
   -4.8615    0.9274    0.0000 C   0  0
   -4.8627    0.1000    0.0000 C   0  0
   -4.1479   -0.3128    0.0000 C   0  0
   -4.1497    1.3402    0.0000 C   0  0
   -2.6430    1.1897    0.0000 C   0  0
   -3.4343    0.9310    0.0000 C   0  0
   -3.4317    0.0979    0.0000 C   0  0
   -2.6379   -0.1558    0.0000 N   0  0
   -2.1526    0.5215    0.0000 C   0  0
   -2.2173   -0.8749    0.0000 C   0  0
   -1.4000   -0.8602    0.0000 C   0  0
   -2.6307   -1.5801    0.0000 C   0  0
   -0.9807   -1.5769    0.0000 C   0  0
   -2.2115   -2.2968    0.0000 C   0  0
   -1.3841   -2.2994    0.0000 C   0  0
   -2.3907    1.9751    0.0000 C   0  0
   -1.5843    2.1493    0.0000 O   0  0
   -5.5775   -0.3119    0.0000 Br  0  0
  4  5  1  0
  2  3  1  0
  5  6  2  0
  6  1  1  0
  1  2  2  0
  6  7  1  0
  3  4  2  0
  1  8  1  0
  4  9  1  0
 10 11  1  0
 10 12  1  0
 11 13  1  0
 12 14  1  0
 13 15  1  0
 14 15  1  0
 17 18  2  0
 18 22  1  0
 16 17  1  0
 21 19  1  0
 20 21  1  0
 24  7  1  0
 20 31  1  0
 31 32  2  0
 31 15  1  0
 22 23  1  0
 23 24  1  0
 24 20  2  0
 25 26  1  0
 25 27  2  0
 25 23  1  0
 26 28  2  0
 27 29  1  0
 28 30  1  0
 29 30  2  0
 19 16  2  0
 21 22  2  0
 17 33  1  0
M  END
>  <ID_NEW>
CPDRE1156

>  <pIC50>
7.167491087293763

$$$$

  SciTegic12180813592D

 40 44  0  0  0  0            999 V2000
   -1.4720    0.3376    0.0000 C   0  0
   -1.0854   -0.3811    0.0000 C   0  0
   -1.0642    1.0445    0.0000 C   0  0
   -2.3084    0.3500    0.0000 O   0  0
   -0.2497   -0.3935    0.0000 C   0  0
   -1.4933   -1.0984    0.0000 C   0  0
   -0.2285    1.0322    0.0000 C   0  0
   -1.4507    1.7736    0.0000 C   0  0
    0.1723    0.3091    0.0000 C   0  0
   -2.6292    2.4458    0.0000 N   0  0
   -1.8292    2.2333    0.0000 C   0  0
   -1.2504    2.8131    0.0000 C   0  0
   -2.2620    3.8293    0.0000 C   0  0
   -2.8504    3.2423    0.0000 C   0  0
   -5.8281    0.9690    0.0000 C   0  0
   -5.8293    0.1374    0.0000 C   0  0
   -5.1104   -0.2754    0.0000 C   0  0
   -5.1122    1.3859    0.0000 N   0  0
   -3.5971    1.2313    0.0000 C   0  0
   -4.3926    0.9726    0.0000 C   0  0
   -4.3900    0.1353    0.0000 C   0  0
   -3.5920   -0.1184    0.0000 N   0  0
   -3.1067    0.5631    0.0000 C   0  0
   -3.1714   -0.8417    0.0000 C   0  0
   -2.3500   -0.8270    0.0000 C   0  0
   -3.5848   -1.5510    0.0000 C   0  0
   -1.9265   -1.5478    0.0000 C   0  0
   -3.1656   -2.2719    0.0000 C   0  0
   -2.3341   -2.2745    0.0000 C   0  0
   -3.3448    2.0208    0.0000 C   0  0
   -3.9031    2.6363    0.0000 O   0  0
   -1.4708    3.6209    0.0000 N   0  0
   -0.5417    2.4042    0.0000 C   0  0
    0.1727    2.8168    0.0000 C   0  0
    0.8873    2.4045    0.0000 N   0  0
    0.1725    3.6418    0.0000 O   0  0
    1.6017    2.8172    0.0000 C   0  0
    2.3162    2.4049    0.0000 C   0  0
    3.0306    2.8176    0.0000 C   0  0
    3.7451    2.4052    0.0000 O   0  0
  1  2  2  0
  1  3  1  0
  1  4  1  0
  2  5  1  0
  2  6  1  0
  3  7  2  0
  3  8  1  0
  7  9  1  0
  5  9  2  0
 13 14  1  0
 21 22  1  0
 22 23  1  0
 23 19  2  0
 24 25  2  0
 24 26  1  0
 24 22  1  0
 25 27  1  0
 26 28  2  0
 27 29  2  0
 28 29  1  0
 18 15  2  0
 20 21  2  0
 16 17  2  0
 17 21  1  0
 15 16  1  0
 20 18  1  0
 19 20  1  0
 19 30  1  0
 23  4  1  0
 30 31  2  0
 30 10  1  0
 10 11  1  0
 12 32  1  0
 13 32  1  0
 10 14  1  0
 11 12  1  0
 12 33  1  0
 33 34  1  0
 34 35  1  0
 34 36  2  0
 35 37  1  0
 37 38  1  0
 38 39  1  0
 39 40  1  0
M  END
>  <ID_NEW>
CPDRE1157

>  <pIC50>
7.167491087293763

$$$$

  SciTegic12180813582D

 37 41  0  0  0  0            999 V2000
   10.5791   -8.4667    0.0000 N   0  0
   11.3791   -8.6792    0.0000 C   0  0
   11.9579   -8.0994    0.0000 C   0  0
   10.9463   -7.0832    0.0000 C   0  0
   10.3579   -7.6702    0.0000 C   0  0
    7.3802   -9.9435    0.0000 C   0  0
    7.3790  -10.7751    0.0000 C   0  0
    8.0979  -11.1879    0.0000 C   0  0
    8.0961   -9.5266    0.0000 N   0  0
    9.6112   -9.6812    0.0000 C   0  0
    8.8157   -9.9399    0.0000 C   0  0
    8.8183  -10.7772    0.0000 C   0  0
    9.6163  -11.0309    0.0000 N   0  0
   10.1016  -10.3494    0.0000 C   0  0
   10.0369  -11.7542    0.0000 C   0  0
   10.8583  -11.7395    0.0000 C   0  0
    9.6235  -12.4635    0.0000 C   0  0
   11.2818  -12.4603    0.0000 C   0  0
   10.0427  -13.1844    0.0000 C   0  0
   10.8742  -13.1870    0.0000 C   0  0
    9.8635   -8.8917    0.0000 C   0  0
    9.3052   -8.2762    0.0000 O   0  0
   11.7375   -7.2916    0.0000 N   0  0
   12.6666   -7.6792    0.0000 C   0  0
   13.2500   -8.2625    0.0000 C   0  0
   13.2458   -9.0875    0.0000 O   0  0
   10.8125   -9.9292    0.0000 O   0  0
   11.6083  -10.1417    0.0000 C   0  0
   11.8198  -10.9389    0.0000 C   0  0
   12.6148  -11.1516    0.0000 C   0  0
   13.1977  -10.5683    0.0000 C   0  0
   12.9802   -9.7694    0.0000 C   0  0
   12.1856   -9.5605    0.0000 C   0  0
   11.9688   -8.7645    0.0000 C   0  0
   11.2359  -11.5217    0.0000 C   0  0
   13.9625   -7.8417    0.0000 N   0  0
   14.5459   -8.4250    0.0000 C   0  0
 18 20  2  0
 19 20  1  0
  9  6  2  0
 11 12  2  0
  7  8  2  0
  8 12  1  0
  6  7  1  0
  3 24  1  0
 11  9  1  0
 24 25  1  0
 10 11  1  0
 25 26  2  0
 10 21  1  0
 21 22  2  0
 21  1  1  0
  1  2  1  0
  3 23  1  0
  4 23  1  0
  1  5  1  0
  2  3  1  0
 14 27  1  0
  4  5  1  0
 27 28  1  0
 12 13  1  0
 28 29  2  0
 13 14  1  0
 29 30  1  0
 14 10  2  0
 30 31  2  0
 15 16  2  0
 31 32  1  0
 15 17  1  0
 32 33  2  0
 33 28  1  0
 15 13  1  0
 33 34  1  0
 16 18  1  0
 29 35  1  0
 25 36  1  0
 17 19  2  0
 36 37  1  0
M  END
>  <ID_NEW>
CPDRE1158

>  <pIC50>
7.154901959985742

$$$$

  SciTegic12180813452D

 31 35  0  0  0  0            999 V2000
   -5.7056   -0.2041    0.0000 C   0  0
   -5.7068   -1.0315    0.0000 C   0  0
   -4.9920   -1.4444    0.0000 C   0  0
   -4.9938    0.2086    0.0000 C   0  0
   -4.2784   -0.2005    0.0000 C   0  0
   -4.2736   -1.0269    0.0000 C   0  0
   -3.4861   -1.2778    0.0000 N   0  0
   -3.0041   -0.6063    0.0000 C   0  0
   -3.4939    0.0594    0.0000 C   0  0
   -2.1792   -0.6014    0.0000 S   0  0
   -3.2266   -2.0609    0.0000 C   0  0
   -3.7781   -2.6725    0.0000 C   0  0
   -3.5192   -3.4550    0.0000 C   0  0
   -2.7104   -3.6224    0.0000 C   0  0
   -2.1611   -3.0012    0.0000 C   0  0
   -2.4230   -2.2211    0.0000 C   0  0
   -3.2436    0.8455    0.0000 C   0  0
   -2.4376    1.0218    0.0000 O   0  0
   -3.7992    1.4554    0.0000 N   0  0
   -3.5468    2.2384    0.0000 C   0  0
   -4.0985    2.8469    0.0000 C   0  0
   -4.9057    2.6747    0.0000 N   0  0
   -5.1582    1.8883    0.0000 C   0  0
   -4.6035    1.2741    0.0000 C   0  0
   -1.3542   -0.6000    0.0000 C   0  0
   -0.9424   -1.3161    0.0000 C   0  0
   -0.1181   -1.3150    0.0000 C   0  0
    0.2940   -0.5993    0.0000 C   0  0
   -0.1242    0.1168    0.0000 C   0  0
   -0.9470    0.1122    0.0000 C   0  0
   -1.3630    0.8247    0.0000 C   0  0
 21 22  1  0
 22 23  1  0
 23 24  1  0
  1  2  2  0
  2  3  1  0
  3  6  2  0
  5  4  2  0
 10 25  1  0
 25 26  2  0
 26 27  1  0
 27 28  2  0
 28 29  1  0
 29 30  2  0
 30 25  1  0
 30 31  1  0
  4  1  1  0
  5  6  1  0
  6  7  1  0
  7  8  1  0
  8  9  2  0
  9  5  1  0
  8 10  1  0
  7 11  1  0
 11 12  2  0
 12 13  1  0
 13 14  2  0
 14 15  1  0
 15 16  2  0
 16 11  1  0
  9 17  1  0
 17 18  2  0
 17 19  1  0
 19 20  1  0
 19 24  1  0
 20 21  1  0
M  END
>  <ID_NEW>
CPDRE1159

>  <pIC50>
7.1487416512809245

$$$$

  SciTegic12180813512D

 34 38  0  0  0  0            999 V2000
   10.0569   -4.2708    0.0000 C   0  0
   10.0516   -5.0940    0.0000 C   0  0
   10.7607   -5.5084    0.0000 C   0  0
   11.4756   -5.1007    0.0000 C   0  0
   11.4770   -4.2744    0.0000 C   0  0
   10.7672   -3.8637    0.0000 C   0  0
    7.8042   -2.2875    0.0000 N   0  0
    7.8000   -1.4625    0.0000 C   0  0
    7.0874   -1.0559    0.0000 C   0  0
    6.3744   -1.4697    0.0000 N   0  0
    6.3786   -2.2947    0.0000 C   0  0
    7.0958   -2.7059    0.0000 C   0  0
    8.1657   -5.7381    0.0000 C   0  0
    7.5786   -6.3194    0.0000 C   0  0
    7.7890   -7.1163    0.0000 C   0  0
    8.5859   -7.3332    0.0000 C   0  0
    9.1723   -6.7468    0.0000 C   0  0
    8.9589   -5.9521    0.0000 C   0  0
    7.9881   -3.5951    0.0000 C   0  0
    7.9691   -4.9405    0.0000 N   0  0
    8.4664   -4.2720    0.0000 C   0  0
    7.1799   -4.6727    0.0000 C   0  0
    7.1956   -3.8420    0.0000 C   0  0
    6.4852   -3.4150    0.0000 C   0  0
    5.7586   -3.8173    0.0000 N   0  0
    5.7469   -4.6513    0.0000 C   0  0
    6.4580   -5.0746    0.0000 C   0  0
    5.0196   -5.0463    0.0000 O   0  0
    4.3103   -4.6211    0.0000 C   0  0
    8.3958   -2.8750    0.0000 C   0  0
    9.1042   -2.4583    0.0000 O   0  0
    9.2583   -4.0542    0.0000 O   0  0
   10.7625   -3.0375    0.0000 C   0  0
   10.7542   -6.3334    0.0000 F   0  0
  1  2  2  0
  3  4  2  0
  4  5  1  0
 17 18  2  0
 18 13  1  0
 19 23  1  0
 22 20  1  0
 20 21  1  0
 21 19  2  0
 22 23  2  0
 23 24  1  0
 24 25  2  0
 25 26  1  0
 26 27  2  0
 27 22  1  0
 26 28  1  0
 28 29  1  0
 20 13  1  0
 19 30  1  0
 13 14  2  0
 15 16  2  0
 16 17  1  0
 30 31  2  0
 14 15  1  0
 30  7  1  0
  8  9  1  0
  9 10  1  0
 10 11  1  0
 11 12  1  0
  7  8  1  0
  7 12  1  0
  2  3  1  0
 21 32  1  0
 32  1  1  0
  5  6  2  0
  6 33  1  0
  6  1  1  0
  3 34  1  0
M  END
>  <ID_NEW>
CPDRE1160

>  <pIC50>
7.136677139879544

$$$$

  SciTegic12180814002D

 42 46  0  0  0  0            999 V2000
   -3.1681   -3.7874    0.0000 C   0  0
   -3.1693   -4.6147    0.0000 C   0  0
   -2.4544   -5.0276    0.0000 C   0  0
   -2.4562   -3.3746    0.0000 C   0  0
   -0.9495   -3.5251    0.0000 C   0  0
   -1.7409   -3.7837    0.0000 C   0  0
   -1.7383   -4.6169    0.0000 C   0  0
   -0.9445   -4.8706    0.0000 N   0  0
   -0.4591   -4.1933    0.0000 C   0  0
   -0.6972   -2.7397    0.0000 C   0  0
   -1.2512   -2.1284    0.0000 O   0  0
   -0.6851   -5.6538    0.0000 C   0  0
   -1.2357   -6.2644    0.0000 C   0  0
   -0.9769   -7.0470    0.0000 C   0  0
   -0.1682   -7.2146    0.0000 C   0  0
    0.3812   -6.5934    0.0000 C   0  0
    0.1195   -5.8133    0.0000 C   0  0
    0.3659   -4.1886    0.0000 C   0  0
    0.0125   -2.3208    0.0000 N   0  0
    0.7300   -2.7281    0.0000 C   0  0
    1.4376   -2.3127    0.0000 C   0  0
    1.4339   -1.4882    0.0000 N   0  0
    0.7163   -1.0808    0.0000 C   0  0
    0.0025   -1.4980    0.0000 C   0  0
    0.7083   -0.2541    0.0000 C   0  0
   -0.0101    0.1514    0.0000 C   0  0
   -0.0182    0.9764    0.0000 N   0  0
   -0.7206   -0.2680    0.0000 O   0  0
   -3.8841   -5.0267    0.0000 O   0  0
   -4.5983   -4.6136    0.0000 C   0  0
    0.7825   -4.9007    0.0000 C   0  0
    0.3722   -5.6168    0.0000 C   0  0
    0.7881   -6.3284    0.0000 C   0  0
    1.6139   -6.3242    0.0000 C   0  0
    2.0222   -5.6024    0.0000 C   0  0
    1.6039   -4.8937    0.0000 C   0  0
    2.0100   -4.1755    0.0000 C   0  0
    2.8471   -5.5947    0.0000 F   0  0
    0.6922    1.3959    0.0000 C   0  0
    0.6841    2.2209    0.0000 C   0  0
    1.3945    2.6403    0.0000 C   0  0
    2.1083    3.0602    0.0000 N   0  0
 15 16  1  0
  8  9  1  0
 16 17  2  0
 17 12  1  0
  9  5  2  0
  5 10  1  0
 10 19  1  0
 19 20  1  0
 19 24  1  0
 20 21  1  0
 21 22  1  0
 22 23  1  0
 23 24  1  0
 23 25  1  0
 25 26  1  0
 26 27  1  0
 26 28  2  0
  2 29  1  0
 29 30  1  0
 18 31  1  0
 31 32  2  0
 32 33  1  0
 33 34  2  0
 34 35  1  0
 35 36  2  0
 36 31  1  0
 36 37  1  0
 35 38  1  0
 10 11  2  0
  9 18  1  0
  1  2  2  0
  2  3  1  0
  3  7  2  0
  6  4  2  0
  8 12  1  0
  4  1  1  0
 12 13  2  0
  6  7  1  0
 13 14  1  0
 27 39  1  0
  5  6  1  0
 39 40  1  0
 14 15  2  0
 40 41  1  0
  7  8  1  0
 41 42  3  0
M  END
>  <ID_NEW>
CPDRE1161

>  <pIC50>
7.136677139879544

$$$$

  SciTegic12180813482D

 32 36  0  0  0  0            999 V2000
   -1.6722   -1.2729    0.0000 C   0  0
   -0.9527   -1.6814    0.0000 C   0  0
   -0.2413   -1.2626    0.0000 C   0  0
   -0.2482   -0.4355    0.0000 C   0  0
   -0.9724   -0.0289    0.0000 C   0  0
   -1.6808   -0.4500    0.0000 C   0  0
   -2.4000   -0.0458    0.0000 O   0  0
   -2.3830   -1.6916    0.0000 F   0  0
   -0.9826    0.7960    0.0000 C   0  0
   -2.8708    2.3750    0.0000 N   0  0
   -2.4625    3.0917    0.0000 C   0  0
   -2.8767    3.7997    0.0000 C   0  0
   -3.7009    3.7973    0.0000 N   0  0
   -4.1092    3.0806    0.0000 C   0  0
   -3.6934    2.3664    0.0000 C   0  0
   -3.7856   -0.9377    0.0000 C   0  0
   -4.5013   -1.3441    0.0000 C   0  0
   -4.5061   -2.1653    0.0000 C   0  0
   -3.7960   -2.5809    0.0000 C   0  0
   -3.0796   -2.1695    0.0000 C   0  0
   -3.0783   -1.3497    0.0000 C   0  0
   -4.4516    0.3673    0.0000 C   0  0
   -4.2385    1.1652    0.0000 C   0  0
   -4.8223    1.7468    0.0000 N   0  0
   -5.6195    1.5316    0.0000 C   0  0
   -5.8296    0.7295    0.0000 C   0  0
   -5.2442    0.1514    0.0000 C   0  0
   -3.7792   -0.1166    0.0000 N   0  0
   -3.1099    0.3659    0.0000 C   0  0
   -3.3667    1.1542    0.0000 C   0  0
   -2.6542    1.5709    0.0000 C   0  0
   -1.9417    1.1584    0.0000 O   0  0
  4  5  1  0
  2  3  1  0
  5  6  2  0
  6  1  1  0
  1  2  2  0
  6  7  1  0
  3  4  2  0
  1  8  1  0
  5  9  1  0
 19 20  1  0
 24 25  2  0
 17 18  1  0
 25 26  1  0
 20 21  2  0
 26 27  2  0
 27 22  1  0
 21 16  1  0
 16 17  2  0
 29 30  2  0
 18 19  2  0
 28 29  1  0
 30 23  1  0
 22 28  1  0
 28 16  1  0
 22 23  2  0
 29  7  1  0
 30 31  1  0
 23 24  1  0
 31 32  2  0
 31 10  1  0
 12 13  1  0
 13 14  1  0
 14 15  1  0
 10 11  1  0
 10 15  1  0
 11 12  1  0
M  END
>  <ID_NEW>
CPDRE1162

>  <pIC50>
7.130768280269023

$$$$

  SciTegic12180813592D

 42 46  0  0  0  0            999 V2000
    6.3119   -5.4970    0.0000 C   0  0
    6.5033   -4.6933    0.0000 N   0  0
    4.9269   -5.1715    0.0000 N   0  0
    5.5280   -5.7347    0.0000 C   0  0
    5.9000   -4.1328    0.0000 C   0  0
    5.1097   -4.3707    0.0000 C   0  0
    4.5031   -8.7964    0.0000 C   0  0
    3.9160   -9.3777    0.0000 C   0  0
    4.1264  -10.1746    0.0000 C   0  0
    4.9233  -10.3915    0.0000 C   0  0
    5.5097   -9.8051    0.0000 C   0  0
    5.2963   -9.0104    0.0000 C   0  0
    4.3255   -6.6534    0.0000 C   0  0
    4.3065   -7.9988    0.0000 N   0  0
    4.8038   -7.3303    0.0000 C   0  0
    3.5173   -7.7310    0.0000 C   0  0
    3.5330   -6.9003    0.0000 C   0  0
    2.8226   -6.4733    0.0000 C   0  0
    2.0960   -6.8756    0.0000 N   0  0
    2.0843   -7.7096    0.0000 C   0  0
    2.7954   -8.1329    0.0000 C   0  0
    1.3570   -8.1046    0.0000 O   0  0
    0.6477   -7.6794    0.0000 C   0  0
    4.3207   -5.8249    0.0000 C   0  0
    3.7291   -5.2332    0.0000 O   0  0
    5.5958   -7.1124    0.0000 C   0  0
    6.3083   -7.5249    0.0000 C   0  0
    6.3045   -8.3493    0.0000 C   0  0
    7.0162   -8.7617    0.0000 C   0  0
    7.7307   -8.3508    0.0000 C   0  0
    7.7290   -7.5233    0.0000 C   0  0
    7.0168   -7.1146    0.0000 C   0  0
    7.0125   -6.2874    0.0000 C   0  0
    8.3083   -6.9332    0.0000 F   0  0
    7.0209   -5.9083    0.0000 C   0  0
    7.7334   -5.4916    0.0000 C   0  0
    7.7292   -4.6666    0.0000 O   0  0
    8.4459   -5.9041    0.0000 N   0  0
    9.1583   -5.4833    0.0000 C   0  0
    9.8667   -5.8958    0.0000 C   0  0
   10.5792   -5.4792    0.0000 C   0  0
   11.2917   -5.8917    0.0000 N   0  0
  3  4  1  0
  3  6  1  0
  4  1  1  0
 13 17  1  0
 16 14  1  0
 14 15  1  0
 15 13  2  0
 16 17  2  0
 17 18  1  0
 18 19  2  0
 19 20  1  0
 20 21  2  0
 21 16  1  0
 20 22  1  0
 22 23  1  0
 14  7  1  0
  7  8  2  0
  9 10  2  0
 10 11  1  0
  8  9  1  0
 13 24  1  0
 11 12  2  0
 12  7  1  0
 24 25  2  0
 15 26  1  0
 26 27  1  0
 27 28  2  0
 28 29  1  0
 29 30  2  0
  1  2  1  0
 30 31  1  0
  2  5  1  0
 31 32  2  0
 32 27  1  0
  5  6  1  0
 32 33  1  0
 31 34  1  0
 24  3  1  0
  1 35  1  0
 35 36  1  0
 36 37  2  0
 36 38  1  0
 38 39  1  0
 39 40  1  0
 40 41  1  0
 41 42  3  0
M  END
>  <ID_NEW>
CPDRE1163

>  <pIC50>
7.102372908709557

$$$$

  -MTS-   10172316392D 0   0.00000     0.00000     0

 33 37  0  0  1  0  0  0  0  0999 V2000
    4.2060   -4.2000    0.0000 C   0  0  0  0  0  0  0  0  0  0  0  0
    3.4900   -4.6070    0.0000 C   0  0  0  0  0  0  0  0  0  0  0  0
    3.4860   -5.4280    0.0000 C   0  0  0  0  0  0  0  0  0  0  0  0
    4.1960   -5.8430    0.0000 C   0  0  0  0  0  0  0  0  0  0  0  0
    4.9120   -5.4320    0.0000 C   0  0  0  0  0  0  0  0  0  0  0  0
    4.9130   -4.6120    0.0000 C   0  0  0  0  0  0  0  0  0  0  0  0
    6.2600   -3.6920    0.0000 C   0  0  0  0  0  0  0  0  0  0  0  0
    6.0430   -4.4860    0.0000 C   0  0  0  0  0  0  0  0  0  0  0  0
    6.6210   -5.0690    0.0000 C   0  0  0  0  0  0  0  0  0  0  0  0
    7.4160   -4.8590    0.0000 C   0  0  0  0  0  0  0  0  0  0  0  0
    7.6310   -4.0620    0.0000 C   0  0  0  0  0  0  0  0  0  0  0  0
    7.0510   -3.4820    0.0000 C   0  0  0  0  0  0  0  0  0  0  0  0
    4.6210   -0.9330    0.0000 N   0  0  0  0  0  0  0  0  0  0  0  0
    4.8330   -0.1330    0.0000 C   0  0  0  0  0  0  0  0  0  0  0  0
    4.2500    0.4470    0.0000 C   0  0  1  0  0  0  0  0  0  0  0  0
    3.4510    0.2340    0.0000 N   0  0  0  0  0  0  0  0  0  0  0  0
    3.2380   -0.5660    0.0000 C   0  0  0  0  0  0  0  0  0  0  0  0
    3.8250   -1.1520    0.0000 C   0  0  0  0  0  0  0  0  0  0  0  0
    3.5400   -2.8950    0.0000 C   0  0  0  0  0  0  0  0  0  0  0  0
    3.7530   -2.0970    0.0000 C   0  0  0  0  0  0  0  0  0  0  0  0
    3.1690   -1.5160    0.0000 N   0  0  0  0  0  0  0  0  0  0  0  0
    2.3720   -1.7310    0.0000 C   0  0  0  0  0  0  0  0  0  0  0  0
    2.1620   -2.5330    0.0000 C   0  0  0  0  0  0  0  0  0  0  0  0
    2.7470   -3.1110    0.0000 C   0  0  0  0  0  0  0  0  0  0  0  0
    4.2120   -3.3790    0.0000 N   0  0  0  0  0  0  0  0  0  0  0  0
    4.8820   -2.8970    0.0000 C   0  0  0  0  0  0  0  0  0  0  0  0
    4.6250   -2.1080    0.0000 C   0  0  0  0  0  0  0  0  0  0  0  0
    5.6750   -3.1080    0.0000 O   0  0  0  0  0  0  0  0  0  0  0  0
    5.2080   -1.5210    0.0000 C   0  0  0  0  0  0  0  0  0  0  0  0
    6.0330   -1.5210    0.0000 O   0  0  0  0  0  0  0  0  0  0  0  0
    5.2170   -4.4830    0.0000 C   0  0  0  0  0  0  0  0  0  0  0  0
    7.2620   -2.6790    0.0000 C   0  0  0  0  0  0  0  0  0  0  0  0
    4.2460    1.2750    0.0000 C   0  0  0  0  0  0  0  0  0  0  0  0
  8  9  1  0  0  0  0
 19 20  2  0  0  0  0
  3  4  2  0  0  0  0
 20 21  1  0  0  0  0
  9 10  2  0  0  0  0
 21 22  2  0  0  0  0
 22 23  1  0  0  0  0
 10 11  1  0  0  0  0
 23 24  2  0  0  0  0
 24 19  1  0  0  0  0
  4  5  1  0  0  0  0
 11 12  2  0  0  0  0
 26 27  2  0  0  0  0
 12  7  1  0  0  0  0
 25 26  1  0  0  0  0
 27 20  1  0  0  0  0
 19 25  1  0  0  0  0
 25  1  1  0  0  0  0
 13 14  1  0  0  0  0
 26 28  1  0  0  0  0
 28  7  1  0  0  0  0
  1  2  2  0  0  0  0
 27 29  1  0  0  0  0
  5  6  2  0  0  0  0
 29 30  2  0  0  0  0
 29 13  1  0  0  0  0
  6  1  1  0  0  0  0
  8 31  1  0  0  0  0
 12 32  1  0  0  0  0
  2  3  1  0  0  0  0
 15 33  1  1  0  0  0
  7  8  2  0  0  0  0
 13 18  1  0  0  0  0
 14 15  1  0  0  0  0
 15 16  1  0  0  0  0
 16 17  1  0  0  0  0
 17 18  1  0  0  0  0
M  END
>  <ID_NEW>
CPDRE1164

>  <pIC50>
7.096910013008055

$$$$

  SciTegic12180813462D

 32 36  0  0  0  0            999 V2000
    6.4818   -4.9208    0.0000 C   0  0
    6.4765   -5.7440    0.0000 C   0  0
    7.1857   -6.1584    0.0000 C   0  0
    7.9006   -5.7507    0.0000 C   0  0
    7.9019   -4.9244    0.0000 C   0  0
    7.1922   -4.5137    0.0000 C   0  0
    5.5083   -2.0542    0.0000 N   0  0
    6.2249   -1.6333    0.0000 C   0  0
    6.2203   -0.8084    0.0000 C   0  0
    5.5008   -0.3980    0.0000 N   0  0
    4.7841   -0.8147    0.0000 C   0  0
    4.7870   -1.6459    0.0000 C   0  0
    4.3768   -5.4045    0.0000 C   0  0
    3.6571   -5.8150    0.0000 C   0  0
    3.6522   -6.6404    0.0000 C   0  0
    4.3664   -7.0560    0.0000 C   0  0
    5.0870   -6.6446    0.0000 C   0  0
    5.0884   -5.8206    0.0000 C   0  0
    3.7067   -4.0911    0.0000 C   0  0
    3.9240   -3.2891    0.0000 C   0  0
    3.3360   -2.7075    0.0000 C   0  0
    2.5346   -2.9227    0.0000 N   0  0
    2.3246   -3.7289    0.0000 C   0  0
    2.9141   -4.3112    0.0000 C   0  0
    4.3832   -4.5792    0.0000 N   0  0
    5.0567   -4.0925    0.0000 C   0  0
    4.7999   -3.3001    0.0000 C   0  0
    5.5166   -2.8834    0.0000 C   0  0
    6.2332   -3.2959    0.0000 O   0  0
    5.7666   -4.5042    0.0000 O   0  0
    7.1875   -3.6875    0.0000 C   0  0
    7.1791   -6.9834    0.0000 F   0  0
 24 19  1  0
 18 13  1  0
 13 14  2  0
 26 27  2  0
 15 16  2  0
 25 26  1  0
 27 20  1  0
 19 25  1  0
 25 13  1  0
 19 20  2  0
 27 28  1  0
 20 21  1  0
 28 29  2  0
 28  7  1  0
  9 10  1  0
 10 11  1  0
 11 12  1  0
  7  8  1  0
  7 12  1  0
  8  9  1  0
 26 30  1  0
 30  1  1  0
  4  5  1  0
  6 31  1  0
  2  3  1  0
  3 32  1  0
  5  6  2  0
  6  1  1  0
  1  2  2  0
  3  4  2  0
 16 17  1  0
 21 22  2  0
 14 15  1  0
 22 23  1  0
 17 18  2  0
 23 24  2  0
M  END
>  <ID_NEW>
CPDRE1165

>  <pIC50>
7.0915149811213505

$$$$

  SciTegic12180813462D

 33 37  0  0  0  0            999 V2000
   -5.7056    0.0834    0.0000 C   0  0
   -5.7068   -0.7440    0.0000 C   0  0
   -4.9920   -1.1569    0.0000 C   0  0
   -4.9938    0.4961    0.0000 C   0  0
   -4.2784    0.0870    0.0000 C   0  0
   -4.2736   -0.7394    0.0000 C   0  0
   -3.4861   -0.9903    0.0000 N   0  0
   -3.0041   -0.3188    0.0000 C   0  0
   -3.4939    0.3469    0.0000 C   0  0
   -3.2266   -1.7734    0.0000 C   0  0
   -3.7781   -2.3850    0.0000 C   0  0
   -3.5192   -3.1675    0.0000 C   0  0
   -2.7104   -3.3349    0.0000 C   0  0
   -2.1611   -2.7137    0.0000 C   0  0
   -2.4230   -1.9336    0.0000 C   0  0
   -3.2436    1.1330    0.0000 C   0  0
   -2.4376    1.3093    0.0000 O   0  0
   -3.7992    1.7429    0.0000 N   0  0
   -3.5468    2.5259    0.0000 C   0  0
   -4.0985    3.1344    0.0000 C   0  0
   -4.9057    2.9622    0.0000 N   0  0
   -5.1582    2.1758    0.0000 C   0  0
   -4.6035    1.5616    0.0000 C   0  0
   -2.1791   -0.3139    0.0000 C   0  0
   -1.4667   -0.7250    0.0000 C   0  0
   -1.4692   -1.5486    0.0000 C   0  0
   -0.7577   -1.9595    0.0000 C   0  0
   -0.0445   -1.5480    0.0000 C   0  0
   -0.0474   -0.7213    0.0000 C   0  0
   -0.7595   -0.3140    0.0000 C   0  0
   -0.7624    0.5110    0.0000 C   0  0
    0.6655   -0.3061    0.0000 F   0  0
   -4.9909   -1.9819    0.0000 F   0  0
 18 19  1  0
 18 23  1  0
 19 20  1  0
 20 21  1  0
 21 22  1  0
 22 23  1  0
  8 24  1  0
 24 25  1  0
 25 26  2  0
 26 27  1  0
 27 28  2  0
 28 29  1  0
 29 30  2  0
 30 25  1  0
 30 31  1  0
 29 32  1  0
  3 33  1  0
  1  2  2  0
  2  3  1  0
  3  6  2  0
  5  4  2  0
  4  1  1  0
  5  6  1  0
  6  7  1  0
  7  8  1  0
  8  9  2  0
  9  5  1  0
  7 10  1  0
 10 11  2  0
 11 12  1  0
 12 13  2  0
 13 14  1  0
 14 15  2  0
 15 10  1  0
  9 16  1  0
 16 17  2  0
 16 18  1  0
M  END
>  <ID_NEW>
CPDRE1166

>  <pIC50>
7.075720713938117

$$$$

  SciTegic12180813452D

 31 35  0  0  0  0            999 V2000
   -5.7047    0.7439    0.0000 C   0  0
   -5.7036    0.0273    0.0000 C   0  0
   -5.0770   -0.3234    0.0000 C   0  0
   -5.0875    1.1057    0.0000 C   0  0
   -4.4651    0.7550    0.0000 C   0  0
   -4.4556    0.0383    0.0000 C   0  0
   -3.7749   -0.1788    0.0000 N   0  0
   -3.3542    0.4052    0.0000 C   0  0
   -3.7844    0.9814    0.0000 C   0  0
   -3.5443   -0.8553    0.0000 C   0  0
   -4.0211   -1.3958    0.0000 C   0  0
   -3.7947   -2.0764    0.0000 C   0  0
   -3.0914   -2.2167    0.0000 C   0  0
   -2.6144   -1.6804    0.0000 C   0  0
   -2.8451   -0.9997    0.0000 C   0  0
   -3.5672    1.6664    0.0000 C   0  0
   -2.8695    1.8206    0.0000 O   0  0
   -4.0560    2.1969    0.0000 N   0  0
   -3.8387    2.8777    0.0000 C   0  0
   -4.3233    3.4082    0.0000 C   0  0
   -5.0251    3.2538    0.0000 N   0  0
   -5.2382    2.5689    0.0000 C   0  0
   -4.7536    2.0384    0.0000 C   0  0
   -1.4874    0.7229    0.0000 C   0  0
   -1.0295    1.2766    0.0000 C   0  0
   -2.1919    0.8409    0.0000 C   0  0
   -1.2803    1.9480    0.0000 C   0  0
   -2.4427    1.5165    0.0000 C   0  0
   -2.6497    0.2914    0.0000 O   0  0
   -1.9890    2.0660    0.0000 C   0  0
   -1.2364    0.0497    0.0000 C   0  0
 18 23  1  0
 19 20  1  0
 20 21  1  0
 21 22  1  0
 22 23  1  0
  1  2  2  0
  2  3  1  0
  3  6  2  0
  5  4  2  0
  4  1  1  0
  5  6  1  0
 24 25  1  0
 24 26  2  0
 25 27  2  0
 24 31  1  0
 26 28  1  0
 26 29  1  0
 27 30  1  0
 28 30  2  0
  8 29  1  0
  6  7  1  0
  7  8  1  0
  8  9  2  0
  9  5  1  0
  7 10  1  0
 10 11  2  0
 11 12  1  0
 12 13  2  0
 13 14  1  0
 14 15  2  0
 15 10  1  0
  9 16  1  0
 16 17  2  0
 16 18  1  0
 18 19  1  0
M  END
>  <ID_NEW>
CPDRE1167

>  <pIC50>
7.0655015487564325

$$$$

  SciTegic12180813452D

 32 36  0  0  0  0            999 V2000
   -5.7056    1.5292    0.0000 C   0  0
   -5.7068    0.7018    0.0000 C   0  0
   -4.9919    0.2889    0.0000 C   0  0
   -4.9937    1.9419    0.0000 C   0  0
   -4.2824    1.5291    0.0000 C   0  0
   -4.2776    0.7060    0.0000 C   0  0
   -3.4932    0.4561    0.0000 N   0  0
   -3.0132    1.1249    0.0000 C   0  0
   -3.5010    1.7880    0.0000 C   0  0
   -3.2507    2.5741    0.0000 C   0  0
   -2.4447    2.7504    0.0000 N   0  0
   -3.8063    3.1840    0.0000 O   0  0
   -1.8905    2.1373    0.0000 C   0  0
   -1.0877    2.3109    0.0000 C   0  0
   -0.8332    3.0960    0.0000 N   0  0
   -1.3880    3.7079    0.0000 C   0  0
   -2.1973    3.5347    0.0000 C   0  0
   -3.5000   -0.3667    0.0000 C   0  0
   -4.2183   -0.7703    0.0000 C   0  0
   -4.2254   -1.5924    0.0000 C   0  0
   -3.5157   -2.0105    0.0000 C   0  0
   -2.7973   -1.6006    0.0000 C   0  0
   -2.7937   -0.7799    0.0000 C   0  0
   -2.2208    1.3417    0.0000 C   0  0
   -1.6375    0.7583    0.0000 C   0  0
   -1.8540   -0.0388    0.0000 C   0  0
   -1.2714   -0.6219    0.0000 C   0  0
   -0.4736   -0.4086    0.0000 C   0  0
   -0.2616    0.3931    0.0000 C   0  0
   -0.8456    0.9727    0.0000 C   0  0
   -0.6347    1.7702    0.0000 C   0  0
   -1.4853   -1.4187    0.0000 F   0  0
 15 16  1  0
 16 17  1  0
  7 18  1  0
 18 19  2  0
 19 20  1  0
 20 21  2  0
 21 22  1  0
 22 23  2  0
 23 18  1  0
  8 24  1  0
 24 25  1  0
 25 26  2  0
 26 27  1  0
 27 28  2  0
 28 29  1  0
 29 30  2  0
 30 25  1  0
 30 31  1  0
  1  2  2  0
  2  3  1  0
  3  6  2  0
  5  4  2  0
  4  1  1  0
  5  6  1  0
  6  7  1  0
  7  8  1  0
  8  9  2  0
  9  5  1  0
  9 10  1  0
 10 11  1  0
 27 32  1  0
 10 12  2  0
 11 13  1  0
 11 17  1  0
 13 14  1  0
 14 15  1  0
M  END
>  <ID_NEW>
CPDRE1168

>  <pIC50>
7.0655015487564325

$$$$

  SciTegic12180813462D

 32 36  0  0  0  0            999 V2000
   -5.8306    2.0501    0.0000 C   0  0
   -5.8318    1.2227    0.0000 C   0  0
   -5.1169    0.8098    0.0000 N   0  0
   -5.1187    2.4628    0.0000 C   0  0
   -3.6091    0.9734    0.0000 N   0  0
   -3.1257    1.6465    0.0000 C   0  0
   -3.6166    2.3142    0.0000 C   0  0
   -4.4034    2.0537    0.0000 C   0  0
   -4.3987    1.2250    0.0000 C   0  0
   -3.4042    3.1167    0.0000 C   0  0
   -3.9917    3.7042    0.0000 O   0  0
   -2.5792    3.1167    0.0000 N   0  0
   -2.1679    2.4004    0.0000 C   0  0
   -1.3465    2.3984    0.0000 C   0  0
   -0.9301    3.1111    0.0000 N   0  0
   -1.3414    3.8274    0.0000 C   0  0
   -2.1690    3.8310    0.0000 C   0  0
   -3.4000    0.1792    0.0000 C   0  0
   -3.9859   -0.3977    0.0000 C   0  0
   -3.7774   -1.1913    0.0000 C   0  0
   -2.9843   -1.4079    0.0000 C   0  0
   -2.4000   -0.8249    0.0000 C   0  0
   -2.6116   -0.0336    0.0000 C   0  0
   -2.3333    1.4375    0.0000 C   0  0
   -1.9250    0.7250    0.0000 C   0  0
   -2.3408    0.0156    0.0000 C   0  0
   -1.9332   -0.6964    0.0000 C   0  0
   -1.1111   -0.6995    0.0000 C   0  0
   -0.6983    0.0154    0.0000 C   0  0
   -1.1084    0.7245    0.0000 C   0  0
   -0.7042    1.4417    0.0000 C   0  0
    0.1250    0.0167    0.0000 F   0  0
  8  4  1  0
  4  1  2  0
  8  9  2  0
  6  7  2  0
  5  6  1  0
  7  8  1  0
  9  5  1  0
  7 10  1  0
 10 11  2  0
 10 12  1  0
 12 13  1  0
 12 17  1  0
 13 14  1  0
 14 15  1  0
 15 16  1  0
 16 17  1  0
  5 18  1  0
 18 19  2  0
 19 20  1  0
 20 21  2  0
 21 22  1  0
 22 23  2  0
 23 18  1  0
  6 24  1  0
 24 25  1  0
 25 26  2  0
 26 27  1  0
 27 28  2  0
 28 29  1  0
 29 30  2  0
 30 25  1  0
  1  2  1  0
  2  3  2  0
  3  9  1  0
 30 31  1  0
 29 32  1  0
M  END
>  <ID_NEW>
CPDRE1169

>  <pIC50>
7.0655015487564325

$$$$

  SciTegic12180814002D

 47 52  0  0  0  0            999 V2000
   -0.2972   -5.7208    0.0000 C   0  0
   -0.2984   -6.5481    0.0000 C   0  0
    0.4165   -6.9610    0.0000 C   0  0
    0.4147   -5.3080    0.0000 C   0  0
    1.9214   -5.4585    0.0000 C   0  0
    1.1300   -5.7171    0.0000 C   0  0
    1.1326   -6.5503    0.0000 C   0  0
    1.9264   -6.8040    0.0000 N   0  0
    2.4118   -6.1267    0.0000 C   0  0
    2.1737   -4.6731    0.0000 C   0  0
    1.6197   -4.0618    0.0000 O   0  0
    2.1858   -7.5872    0.0000 C   0  0
    1.6352   -8.1978    0.0000 C   0  0
    1.8940   -8.9804    0.0000 C   0  0
    2.7027   -9.1480    0.0000 C   0  0
    3.2521   -8.5268    0.0000 C   0  0
    2.9904   -7.7467    0.0000 C   0  0
    3.2368   -6.1220    0.0000 C   0  0
    2.8834   -4.2542    0.0000 N   0  0
    3.6009   -4.6615    0.0000 C   0  0
    4.3085   -4.2461    0.0000 C   0  0
    4.3048   -3.4216    0.0000 N   0  0
    3.5872   -3.0142    0.0000 C   0  0
    2.8734   -3.4314    0.0000 C   0  0
    3.5792   -2.1875    0.0000 C   0  0
    2.8608   -1.7820    0.0000 C   0  0
    2.8527   -0.9570    0.0000 N   0  0
    2.1503   -2.2014    0.0000 O   0  0
   -1.0132   -6.9601    0.0000 O   0  0
   -1.7274   -6.5470    0.0000 C   0  0
    3.6534   -6.8341    0.0000 C   0  0
    3.2431   -7.5502    0.0000 C   0  0
    3.6590   -8.2618    0.0000 C   0  0
    4.4848   -8.2576    0.0000 C   0  0
    4.8931   -7.5358    0.0000 C   0  0
    4.4748   -6.8271    0.0000 C   0  0
    4.8809   -6.1089    0.0000 C   0  0
    5.7180   -7.5281    0.0000 F   0  0
    2.1342   -0.5515    0.0000 C   0  0
    2.1261    0.2735    0.0000 C   0  0
    3.5631   -0.5375    0.0000 C   0  0
    4.1459    0.0541    0.0000 C   0  0
    4.9501   -0.1569    0.0000 C   0  0
    5.5317    0.4308    0.0000 C   0  0
    5.3148    1.2328    0.0000 O   0  0
    4.5106    1.4438    0.0000 C   0  0
    3.9233    0.8529    0.0000 C   0  0
 19 20  1  0
 19 24  1  0
 20 21  1  0
 21 22  1  0
 22 23  1  0
 23 24  1  0
 23 25  1  0
 25 26  1  0
 26 27  1  0
 26 28  2  0
  2 29  1  0
 29 30  1  0
 18 31  1  0
 31 32  2  0
 32 33  1  0
 33 34  2  0
 34 35  1  0
 35 36  2  0
 36 31  1  0
 36 37  1  0
 35 38  1  0
 10 11  2  0
  9 18  1  0
  1  2  2  0
  2  3  1  0
  3  7  2  0
  6  4  2  0
  8 12  1  0
  4  1  1  0
 12 13  2  0
  6  7  1  0
 13 14  1  0
  5  6  1  0
 14 15  2  0
  7  8  1  0
 27 39  1  0
 39 40  1  0
 15 16  1  0
 27 41  1  0
  8  9  1  0
 41 42  1  0
 42 43  1  0
 16 17  2  0
 17 12  1  0
  9  5  2  0
  5 10  1  0
 10 19  1  0
 42 47  1  0
 43 44  1  0
 44 45  1  0
 45 46  1  0
 46 47  1  0
M  END
>  <ID_NEW>
CPDRE1170

>  <pIC50>
7.0655015487564325

$$$$

  SciTegic12180813512D

 33 37  0  0  0  0            999 V2000
   10.9706   -3.3972    0.0000 C   0  0
   11.5605   -2.8346    0.0000 C   0  0
   11.1553   -4.1876    0.0000 C   0  0
   10.1554   -3.1742    0.0000 C   0  0
   12.3442   -3.0536    0.0000 C   0  0
   11.3763   -2.0098    0.0000 C   0  0
   11.9364   -4.4099    0.0000 C   0  0
   12.5263   -3.8472    0.0000 C   0  0
   12.9463   -2.4794    0.0000 F   0  0
    7.2573   -0.6354    0.0000 N   0  0
    7.2159   -1.4603    0.0000 C   0  0
    8.0020   -0.2546    0.0000 C   0  0
    7.9105   -1.9129    0.0000 C   0  0
    8.6980   -0.7025    0.0000 C   0  0
    8.6552   -1.5321    0.0000 N   0  0
    6.7385   -3.1852    0.0000 N   0  0
    6.7373   -4.0126    0.0000 C   0  0
    7.4521   -4.4254    0.0000 C   0  0
    7.4503   -2.7724    0.0000 C   0  0
    8.9570   -2.9229    0.0000 C   0  0
    8.1657   -3.1816    0.0000 C   0  0
    8.1683   -4.0147    0.0000 C   0  0
    8.9621   -4.2684    0.0000 N   0  0
    9.4474   -3.5911    0.0000 C   0  0
    9.3827   -4.9875    0.0000 C   0  0
   10.2000   -4.9728    0.0000 C   0  0
    8.9693   -5.6927    0.0000 C   0  0
   10.6193   -5.6895    0.0000 C   0  0
    9.3885   -6.4094    0.0000 C   0  0
   10.2159   -6.4120    0.0000 C   0  0
    9.2093   -2.1375    0.0000 C   0  0
   10.0157   -1.9633    0.0000 O   0  0
    6.0225   -4.4245    0.0000 O   0  0
  2  6  1  0
  3  7  2  0
  5  8  2  0
  5  9  1  0
  7  8  1  0
  1  2  2  0
  1  3  1  0
  1  4  1  0
  2  5  1  0
 11 13  1  0
 12 14  1  0
 13 15  1  0
 14 15  1  0
 10 11  1  0
 10 12  1  0
 22 23  1  0
 23 24  1  0
 24 20  2  0
 25 26  1  0
 25 27  2  0
 25 23  1  0
 26 28  2  0
 27 29  1  0
 28 30  1  0
 29 30  2  0
 19 16  2  0
 21 22  2  0
 17 18  2  0
 18 22  1  0
 16 17  1  0
 21 19  1  0
 20 21  1  0
 20 31  1  0
 31 32  2  0
 17 33  1  0
 31 15  1  0
 24  4  1  0
M  END
>  <ID_NEW>
CPDRE1171

>  <pIC50>
7.05551732784983

$$$$

  SciTegic12180813522D

 34 38  0  0  0  0            999 V2000
    4.3458   -1.6458    0.0000 N   0  0
    4.7542   -2.3583    0.0000 C   0  0
    5.5708   -2.3609    0.0000 C   0  0
    5.9854   -1.6527    0.0000 N   0  0
    5.5770   -0.9402    0.0000 C   0  0
    4.7542   -0.9359    0.0000 C   0  0
    2.5186   -4.3252    0.0000 C   0  0
    1.8029   -4.7317    0.0000 C   0  0
    1.7981   -5.5528    0.0000 C   0  0
    2.5082   -5.9685    0.0000 C   0  0
    3.2246   -5.5570    0.0000 C   0  0
    3.2259   -4.7372    0.0000 C   0  0
    4.5724   -3.8172    0.0000 C   0  0
    4.3551   -4.6110    0.0000 C   0  0
    4.9333   -5.1940    0.0000 C   0  0
    5.7289   -4.9845    0.0000 C   0  0
    5.9432   -4.1866    0.0000 C   0  0
    5.3635   -3.6070    0.0000 C   0  0
    1.8526   -3.0203    0.0000 C   0  0
    2.0657   -2.2223    0.0000 C   0  0
    1.4819   -1.6408    0.0000 C   0  0
    0.6847   -1.8560    0.0000 C   0  0
    0.4746   -2.6580    0.0000 C   0  0
    1.0600   -3.2361    0.0000 N   0  0
    2.5250   -3.5041    0.0000 N   0  0
    3.1943   -3.0217    0.0000 C   0  0
    2.9375   -2.2334    0.0000 C   0  0
    3.9875   -3.2333    0.0000 C   0  0
    3.5208   -1.6458    0.0000 C   0  0
    3.3042   -0.8458    0.0000 O   0  0
    1.6917   -0.8375    0.0000 C   0  0
    1.2750   -0.1208    0.0000 C   0  0
    5.5750   -2.8042    0.0000 C   0  0
    6.7375   -3.9667    0.0000 F   0  0
  9 10  2  0
 21 22  2  0
  1  6  1  0
 22 23  1  0
 10 11  1  0
 23 24  2  0
 24 19  1  0
  2  3  1  0
 11 12  2  0
 26 27  2  0
 12  7  1  0
 25 26  1  0
 27 20  1  0
 19 25  1  0
 25  7  1  0
  3  4  1  0
 26 28  1  0
 28 13  1  0
  4  5  1  0
 27 29  1  0
 13 14  2  0
 29 30  2  0
 29  1  1  0
  5  6  1  0
 21 31  1  0
 14 15  1  0
 31 32  1  0
 18 33  1  0
 15 16  2  0
 17 34  1  0
  1  2  1  0
 16 17  1  0
  7  8  2  0
 17 18  2  0
 18 13  1  0
  8  9  1  0
 19 20  2  0
 20 21  1  0
M  END
>  <ID_NEW>
CPDRE1172

>  <pIC50>
7.050609993355087

$$$$

  SciTegic12180813592D

 44 49  0  0  0  0            999 V2000
   -1.4720    0.1168    0.0000 C   0  0
   -1.0854   -0.6019    0.0000 C   0  0
   -1.0642    0.8237    0.0000 C   0  0
   -2.3084    0.1292    0.0000 O   0  0
   -0.2497   -0.6143    0.0000 C   0  0
   -1.4933   -1.3192    0.0000 C   0  0
   -0.2285    0.8114    0.0000 C   0  0
   -1.4507    1.5528    0.0000 C   0  0
    0.1723    0.0883    0.0000 C   0  0
   -2.6292    2.2250    0.0000 N   0  0
   -1.8292    2.0125    0.0000 C   0  0
   -1.2504    2.5923    0.0000 C   0  0
   -2.2620    3.6085    0.0000 C   0  0
   -2.8504    3.0215    0.0000 C   0  0
   -5.8281    0.7482    0.0000 C   0  0
   -5.8293   -0.0834    0.0000 C   0  0
   -5.1104   -0.4962    0.0000 C   0  0
   -5.1122    1.1651    0.0000 N   0  0
   -3.5971    1.0105    0.0000 C   0  0
   -4.3926    0.7518    0.0000 C   0  0
   -4.3900   -0.0855    0.0000 C   0  0
   -3.5920   -0.3392    0.0000 N   0  0
   -3.1067    0.3423    0.0000 C   0  0
   -3.1714   -1.0625    0.0000 C   0  0
   -2.3500   -1.0478    0.0000 C   0  0
   -3.5848   -1.7718    0.0000 C   0  0
   -1.9265   -1.7686    0.0000 C   0  0
   -3.1656   -2.4927    0.0000 C   0  0
   -2.3341   -2.4953    0.0000 C   0  0
   -3.3448    1.8000    0.0000 C   0  0
   -3.9031    2.4155    0.0000 O   0  0
   -1.4708    3.4001    0.0000 N   0  0
   -0.5417    2.1834    0.0000 C   0  0
    0.1727    2.5960    0.0000 C   0  0
    0.8873    2.1837    0.0000 N   0  0
    0.1725    3.4210    0.0000 O   0  0
    1.6017    2.5964    0.0000 C   0  0
    2.3162    2.1841    0.0000 C   0  0
    3.0306    2.5968    0.0000 N   0  0
    3.7412    2.1827    0.0000 C   0  0
    4.4535    2.5919    0.0000 C   0  0
    4.4575    3.4173    0.0000 O   0  0
    3.7431    3.8318    0.0000 C   0  0
    3.0246    3.4209    0.0000 C   0  0
  1  2  2  0
  1  3  1  0
  1  4  1  0
  2  5  1  0
  2  6  1  0
  3  7  2  0
  3  8  1  0
  7  9  1  0
  5  9  2  0
 13 14  1  0
 21 22  1  0
 22 23  1  0
 23 19  2  0
 24 25  2  0
 24 26  1  0
 24 22  1  0
 25 27  1  0
 26 28  2  0
 27 29  2  0
 28 29  1  0
 18 15  2  0
 20 21  2  0
 16 17  2  0
 17 21  1  0
 15 16  1  0
 20 18  1  0
 19 20  1  0
 19 30  1  0
 23  4  1  0
 30 31  2  0
 30 10  1  0
 10 11  1  0
 12 32  1  0
 13 32  1  0
 10 14  1  0
 11 12  1  0
 12 33  1  0
 33 34  1  0
 34 35  1  0
 34 36  2  0
 35 37  1  0
 37 38  1  0
 38 39  1  0
 39 40  1  0
 39 44  1  0
 40 41  1  0
 41 42  1  0
 42 43  1  0
 43 44  1  0
M  END
>  <ID_NEW>
CPDRE1173

>  <pIC50>
7.050609993355087

$$$$

  SciTegic12180813062D

 30 34  0  0  0  0            999 V2000
   -5.7047    0.7439    0.0000 C   0  0
   -5.7036    0.0273    0.0000 C   0  0
   -5.0770   -0.3234    0.0000 C   0  0
   -5.0875    1.1057    0.0000 C   0  0
   -4.4651    0.7550    0.0000 C   0  0
   -4.4556    0.0383    0.0000 C   0  0
   -3.7749   -0.1788    0.0000 N   0  0
   -3.3542    0.4052    0.0000 C   0  0
   -3.7844    0.9814    0.0000 C   0  0
   -3.5443   -0.8553    0.0000 C   0  0
   -4.0211   -1.3958    0.0000 C   0  0
   -3.7947   -2.0764    0.0000 C   0  0
   -3.0914   -2.2167    0.0000 C   0  0
   -2.6144   -1.6804    0.0000 C   0  0
   -2.8451   -0.9997    0.0000 C   0  0
   -3.5672    1.6664    0.0000 C   0  0
   -2.8695    1.8206    0.0000 O   0  0
   -4.0560    2.1969    0.0000 N   0  0
   -3.8387    2.8777    0.0000 C   0  0
   -4.3233    3.4082    0.0000 C   0  0
   -5.0251    3.2538    0.0000 N   0  0
   -5.2382    2.5689    0.0000 C   0  0
   -4.7536    2.0384    0.0000 C   0  0
   -2.6345    0.4113    0.0000 C   0  0
   -2.2693   -0.2089    0.0000 C   0  0
   -2.6273   -0.8338    0.0000 C   0  0
   -2.2628   -1.4536    0.0000 C   0  0
   -1.5423   -1.4479    0.0000 C   0  0
   -1.1879   -0.8171    0.0000 C   0  0
   -1.5545   -0.1999    0.0000 C   0  0
 14 15  2  0
 15 10  1  0
  9 16  1  0
 16 17  2  0
 16 18  1  0
 18 19  1  0
 18 23  1  0
 19 20  1  0
 20 21  1  0
 21 22  1  0
 22 23  1  0
  8 24  1  0
 24 25  1  0
 25 26  2  0
 26 27  1  0
 27 28  2  0
 28 29  1  0
 29 30  2  0
 30 25  1  0
  1  2  2  0
  2  3  1  0
  3  6  2  0
  5  4  2  0
  4  1  1  0
  5  6  1  0
  6  7  1  0
  7  8  1  0
  8  9  2  0
  9  5  1  0
  7 10  1  0
 10 11  2  0
 11 12  1  0
 12 13  2  0
 13 14  1  0
M  END
>  <ID_NEW>
CPDRE1174

>  <pIC50>
7.040958607678906

$$$$

  SciTegic12180813452D

 31 35  0  0  0  0            999 V2000
    5.6377   -3.1731    0.0000 C   0  0
    6.0441   -3.8846    0.0000 C   0  0
    6.8617   -3.8874    0.0000 C   0  0
    7.2738   -3.1793    0.0000 C   0  0
    6.8623   -2.4671    0.0000 C   0  0
    6.0461   -2.4678    0.0000 C   0  0
    3.1583   -1.1334    0.0000 N   0  0
    3.3708   -0.3334    0.0000 C   0  0
    2.7875    0.2474    0.0000 C   0  0
    1.9884    0.0338    0.0000 N   0  0
    1.7759   -0.7662    0.0000 C   0  0
    2.3625   -1.3526    0.0000 C   0  0
    1.2861   -2.7708    0.0000 C   0  0
    1.2849   -3.5981    0.0000 C   0  0
    1.9998   -4.0110    0.0000 N   0  0
    1.9980   -2.3580    0.0000 C   0  0
    2.7133   -2.7671    0.0000 C   0  0
    2.7182   -3.5936    0.0000 C   0  0
    3.5057   -3.8444    0.0000 N   0  0
    3.9876   -3.1729    0.0000 C   0  0
    3.4978   -2.5072    0.0000 C   0  0
    3.7652   -4.6275    0.0000 C   0  0
    3.2136   -5.2391    0.0000 C   0  0
    3.4726   -6.0216    0.0000 C   0  0
    4.2813   -6.1891    0.0000 C   0  0
    4.8306   -5.5678    0.0000 C   0  0
    4.5688   -4.7877    0.0000 C   0  0
    3.7482   -1.7211    0.0000 C   0  0
    4.5541   -1.5449    0.0000 O   0  0
    4.8125   -3.1709    0.0000 O   0  0
    5.6291   -1.7500    0.0000 C   0  0
  7 12  1  0
  8  9  1  0
 17 16  2  0
 16 13  1  0
 17 18  1  0
 18 19  1  0
 20 30  1  0
 30  1  1  0
  4  5  1  0
  6 31  1  0
  2  3  1  0
  5  6  2  0
  6  1  1  0
  1  2  2  0
  3  4  2  0
 19 20  1  0
 20 21  2  0
 21 17  1  0
 19 22  1  0
 22 23  2  0
 23 24  1  0
 24 25  2  0
 25 26  1  0
 26 27  2  0
 27 22  1  0
 21 28  1  0
 28 29  2  0
 13 14  2  0
 14 15  1  0
 15 18  2  0
 28  7  1  0
  9 10  1  0
 10 11  1  0
 11 12  1  0
  7  8  1  0
M  END
>  <ID_NEW>
CPDRE1175

>  <pIC50>
7.008773924307505

$$$$

  SciTegic12180813562D

 34 38  0  0  0  0            999 V2000
    7.0590   -6.8815    0.0000 C   0  0
    7.0622   -6.0547    0.0000 C   0  0
    7.8082   -7.2913    0.0000 C   0  0
    7.8146   -5.6499    0.0000 C   0  0
    6.3475   -5.6531    0.0000 O   0  0
    8.5138   -6.8871    0.0000 C   0  0
    8.5170   -6.0603    0.0000 C   0  0
    6.3486   -7.3008    0.0000 C   0  0
    7.8291   -4.8250    0.0000 C   0  0
    7.8163   -8.1163    0.0000 F   0  0
    7.0396   -2.6618    0.0000 N   0  0
    6.2477   -2.4273    0.0000 C   0  0
    7.2343   -3.4753    0.0000 C   0  0
    5.6442   -2.9956    0.0000 C   0  0
    6.6350   -4.0462    0.0000 C   0  0
    5.8388   -3.8092    0.0000 N   0  0
    2.8136   -5.2519    0.0000 N   0  0
    2.8124   -6.0793    0.0000 C   0  0
    3.5272   -6.4921    0.0000 C   0  0
    3.5254   -4.8391    0.0000 C   0  0
    5.0325   -4.9889    0.0000 C   0  0
    4.2408   -5.2483    0.0000 C   0  0
    4.2434   -6.0814    0.0000 C   0  0
    5.0369   -6.3356    0.0000 N   0  0
    5.5225   -5.6578    0.0000 C   0  0
    2.0976   -6.4912    0.0000 O   0  0
    5.1858   -7.1471    0.0000 C   0  0
    4.5557   -7.6788    0.0000 C   0  0
    4.7041   -8.4895    0.0000 C   0  0
    5.4820   -8.7669    0.0000 C   0  0
    6.1118   -8.2275    0.0000 C   0  0
    5.9601   -7.4187    0.0000 C   0  0
    5.0951   -4.1662    0.0000 C   0  0
    4.4141   -3.7007    0.0000 O   0  0
  2  4  1  0
  2  5  1  0
  3  6  2  0
  4  7  2  0
  6  7  1  0
  1  8  1  0
  4  9  1  0
  1  2  2  0
  1  3  1  0
  3 10  1  0
 13 15  1  0
 14 16  1  0
 15 16  1  0
 11 12  1  0
 11 13  1  0
 12 14  1  0
 22 23  2  0
 18 19  2  0
 19 23  1  0
 17 18  1  0
 22 20  1  0
 21 22  1  0
 25  5  1  0
 18 26  1  0
 24 27  1  0
 27 28  1  0
 28 29  1  0
 29 30  1  0
 30 31  1  0
 31 32  1  0
 32 27  1  0
 23 24  1  0
 24 25  1  0
 25 21  2  0
 20 17  2  0
 21 33  1  0
 33 16  1  0
 33 34  2  0
M  END
>  <ID_NEW>
CPDRE1176

>  <pIC50>
7.008773924307505

$$$$

  SciTegic12180813532D

 34 38  0  0  0  0            999 V2000
    6.3532   -3.6548    0.0000 C   0  0
    5.7661   -4.2361    0.0000 C   0  0
    5.9765   -5.0330    0.0000 C   0  0
    6.7734   -5.2499    0.0000 C   0  0
    7.3598   -4.6635    0.0000 C   0  0
    7.1464   -3.8688    0.0000 C   0  0
    4.6728   -3.9502    0.0000 C   0  0
    3.9571   -4.3567    0.0000 C   0  0
    3.9523   -5.1778    0.0000 C   0  0
    4.6623   -5.5935    0.0000 C   0  0
    5.3788   -5.1820    0.0000 C   0  0
    5.3801   -4.3622    0.0000 C   0  0
    5.2583   -0.5542    0.0000 N   0  0
    5.6667    0.1625    0.0000 C   0  0
    5.2525    0.8705    0.0000 C   0  0
    4.4283    0.8681    0.0000 N   0  0
    4.0199    0.1514    0.0000 C   0  0
    4.4358   -0.5628    0.0000 C   0  0
    4.0068   -2.6453    0.0000 C   0  0
    4.2199   -1.8473    0.0000 C   0  0
    3.6361   -1.2658    0.0000 C   0  0
    2.8389   -1.4810    0.0000 N   0  0
    2.6288   -2.2830    0.0000 C   0  0
    3.2142   -2.8611    0.0000 C   0  0
    4.6792   -3.1291    0.0000 N   0  0
    5.3485   -2.6467    0.0000 C   0  0
    5.0917   -1.8584    0.0000 C   0  0
    1.8250   -2.4917    0.0000 O   0  0
    1.6083   -3.2875    0.0000 C   0  0
    6.1417   -2.8583    0.0000 O   0  0
    5.6750   -1.2708    0.0000 C   0  0
    6.4708   -1.4833    0.0000 O   0  0
    7.7292   -3.2792    0.0000 C   0  0
    5.0458   -3.8208    0.0000 C   0  0
 17 18  1  0
  8  9  1  0
 19 20  2  0
  3  4  2  0
 20 21  1  0
  9 10  1  0
 21 22  2  0
 22 23  1  0
 10 11  1  0
 23 24  2  0
 24 19  1  0
  4  5  1  0
 11 12  1  0
 26 27  2  0
 12  7  1  0
 25 26  1  0
 27 20  1  0
 19 25  1  0
 13 14  1  0
 23 28  1  0
  1  2  2  0
 28 29  1  0
 25  7  1  0
  5  6  2  0
 26 30  1  0
  6  1  1  0
 27 31  1  0
 31 32  2  0
 31 13  1  0
 30  1  1  0
  2  3  1  0
  6 33  1  0
  7  8  1  0
  2 34  1  0
 13 18  1  0
 14 15  1  0
 15 16  1  0
 16 17  1  0
M  END
>  <ID_NEW>
CPDRE1177

>  <pIC50>
7.0043648054024485

$$$$

  -MTS-   10172316392D 0   0.00000     0.00000     0

 34 38  0  0  1  0  0  0  0  0999 V2000
    1.0620   -0.6630    0.0000 C   0  0  0  0  0  0  0  0  0  0  0  0
    2.3300   -1.0820    0.0000 C   0  0  0  0  0  0  0  0  0  0  0  0
    1.8480   -0.4120    0.0000 C   0  0  0  0  0  0  0  0  0  0  0  0
    2.1070    0.3710    0.0000 C   0  0  0  0  0  0  0  0  0  0  0  0
    2.9150    0.5390    0.0000 C   0  0  0  0  0  0  0  0  0  0  0  0
    0.3970   -0.1750    0.0000 C   0  0  0  0  0  0  0  0  0  0  0  0
    1.8420   -1.7470    0.0000 N   0  0  0  0  0  0  0  0  0  0  0  0
    1.0560   -1.4820    0.0000 C   0  0  0  0  0  0  0  0  0  0  0  0
    0.4370   -2.0270    0.0000 C   0  0  0  0  0  0  0  0  0  0  0  0
    0.5990   -2.8400    0.0000 C   0  0  0  0  0  0  0  0  0  0  0  0
    1.3840   -3.1050    0.0000 C   0  0  0  0  0  0  0  0  0  0  0  0
    2.0090   -2.5570    0.0000 C   0  0  0  0  0  0  0  0  0  0  0  0
    3.1550   -1.0860    0.0000 C   0  0  0  0  0  0  0  0  0  0  0  0
    3.5640   -1.8020    0.0000 N   0  0  0  0  0  0  0  0  0  0  0  0
    3.5710   -0.3730    0.0000 O   0  0  0  0  0  0  0  0  0  0  0  0
    3.4590   -0.0790    0.0000 C   0  0  0  0  0  0  0  0  0  0  0  0
    4.2660    0.0880    0.0000 C   0  0  0  0  0  0  0  0  0  0  0  0
    4.5260    0.8720    0.0000 C   0  0  0  0  0  0  0  0  0  0  0  0
    3.9720    1.4890    0.0000 C   0  0  0  0  0  0  0  0  0  0  0  0
    3.1670    1.3190    0.0000 C   0  0  0  0  0  0  0  0  0  0  0  0
    3.1460   -2.5120    0.0000 C   0  0  0  0  0  0  0  0  0  0  0  0
    3.5510   -3.2260    0.0000 C   0  0  1  0  0  0  0  0  0  0  0  0
    4.3760   -3.2340    0.0000 N   0  0  0  0  0  0  0  0  0  0  0  0
    4.7950   -2.5220    0.0000 C   0  0  0  0  0  0  0  0  0  0  0  0
    4.3880   -1.8010    0.0000 C   0  0  0  0  0  0  0  0  0  0  0  0
    0.4920    0.6420    0.0000 C   0  0  0  0  0  0  0  0  0  0  0  0
   -0.1720    1.1300    0.0000 C   0  0  0  0  0  0  0  0  0  0  0  0
   -0.9280    0.7990    0.0000 C   0  0  0  0  0  0  0  0  0  0  0  0
   -1.0170   -0.0260    0.0000 C   0  0  0  0  0  0  0  0  0  0  0  0
   -0.3520   -0.5100    0.0000 C   0  0  0  0  0  0  0  0  0  0  0  0
    2.6140    1.9320    0.0000 C   0  0  0  0  0  0  0  0  0  0  0  0
    4.2280    2.2730    0.0000 F   0  0  0  0  0  0  0  0  0  0  0  0
    3.1320   -3.9370    0.0000 C   0  0  0  0  0  0  0  0  0  0  0  0
    2.3070   -3.9290    0.0000 O   0  0  0  0  0  0  0  0  0  0  0  0
  3  1  1  0  0  0  0
 16 17  1  0  0  0  0
  1  8  2  0  0  0  0
 17 18  2  0  0  0  0
  3  4  1  0  0  0  0
 18 19  1  0  0  0  0
 19 20  2  0  0  0  0
 20  5  1  0  0  0  0
 14 21  1  0  0  0  0
  4  5  1  0  0  0  0
  7 12  1  0  0  0  0
  8  9  1  0  0  0  0
  9 10  2  0  0  0  0
 10 11  1  0  0  0  0
 14 25  1  0  0  0  0
 21 22  1  0  0  0  0
 22 23  1  0  0  0  0
 23 24  1  0  0  0  0
 24 25  1  0  0  0  0
 11 12  2  0  0  0  0
  6 26  2  0  0  0  0
  7  2  1  0  0  0  0
 26 27  1  0  0  0  0
  2 13  1  0  0  0  0
 27 28  2  0  0  0  0
  1  6  1  0  0  0  0
 28 29  1  0  0  0  0
 13 14  1  0  0  0  0
 29 30  2  0  0  0  0
 30  6  1  0  0  0  0
  7  8  1  0  0  0  0
 20 31  1  0  0  0  0
 13 15  2  0  0  0  0
 19 32  1  0  0  0  0
  2  3  2  0  0  0  0
 22 33  1  1  0  0  0
  5 16  2  0  0  0  0
 33 34  1  0  0  0  0
M  END
>  <ID_NEW>
CPDRE1178

>  <pIC50>
6.991399828238082

$$$$

  SciTegic12180813462D

 32 36  0  0  0  0            999 V2000
    4.5017   -5.3335    0.0000 C   0  0
    4.4849   -6.1570    0.0000 C   0  0
    5.1885   -6.5813    0.0000 C   0  0
    5.9094   -6.1835    0.0000 C   0  0
    5.9222   -5.3569    0.0000 C   0  0
    5.2180   -4.9361    0.0000 C   0  0
    5.4359   -4.1366    0.0000 Cl  0  0
    4.0574   -6.8609    0.0000 F   0  0
    3.2375   -2.7916    0.0000 N   0  0
    3.8209   -2.2041    0.0000 C   0  0
    3.6049   -1.4096    0.0000 C   0  0
    2.8057   -1.1961    0.0000 N   0  0
    2.2223   -1.7836    0.0000 C   0  0
    2.4383   -2.5846    0.0000 C   0  0
    2.4520   -6.2710    0.0000 C   0  0
    1.7363   -6.6775    0.0000 C   0  0
    1.7315   -7.4986    0.0000 C   0  0
    2.4415   -7.9143    0.0000 C   0  0
    3.1580   -7.5028    0.0000 C   0  0
    3.1593   -6.6830    0.0000 C   0  0
    1.7860   -4.9661    0.0000 C   0  0
    1.9991   -4.1681    0.0000 C   0  0
    1.4153   -3.5866    0.0000 C   0  0
    0.6181   -3.8018    0.0000 N   0  0
    0.4080   -4.6038    0.0000 C   0  0
    0.9934   -5.1819    0.0000 C   0  0
    2.4584   -5.4499    0.0000 N   0  0
    3.1277   -4.9675    0.0000 C   0  0
    2.8709   -4.1792    0.0000 C   0  0
    3.4542   -3.5916    0.0000 C   0  0
    4.2500   -3.8041    0.0000 O   0  0
    3.7083   -5.5500    0.0000 C   0  0
  6  1  1  0
  2  8  1  0
 21 22  2  0
 11 12  1  0
 22 23  1  0
 18 19  1  0
 23 24  2  0
 12 13  1  0
 24 25  1  0
 19 20  2  0
 25 26  2  0
 26 21  1  0
 20 15  1  0
 13 14  1  0
 28 29  2  0
 27 28  1  0
 29 22  1  0
 21 27  1  0
 27 15  1  0
  9 10  1  0
 29 30  1  0
 30 31  2  0
 30  9  1  0
 15 16  2  0
  9 14  1  0
 16 17  1  0
 10 11  1  0
 17 18  2  0
  1  2  2  0
 28 32  1  0
 32  1  1  0
  2  3  1  0
  3  4  2  0
  6  7  1  0
  4  5  1  0
  5  6  2  0
M  END
>  <ID_NEW>
CPDRE1179

>  <pIC50>
6.987162775294827

$$$$

  SciTegic12180813482D

 37 41  0  0  0  0            999 V2000
   -4.9190    0.2262    0.0000 C   0  0
   -5.7048   -0.2345    0.0000 C   0  0
   -5.6978   -1.1441    0.0000 C   0  0
   -4.9089   -1.5893    0.0000 C   0  0
   -4.1308   -0.2226    0.0000 C   0  0
   -4.1277   -1.1363    0.0000 C   0  0
   -3.2537   -1.4138    0.0000 N   0  0
   -2.7203   -0.6727    0.0000 C   0  0
   -3.2626    0.0647    0.0000 C   0  0
   -2.9813    0.9336    0.0000 C   0  0
   -2.0917    1.1247    0.0000 O   0  0
   -3.5980    1.6071    0.0000 N   0  0
   -3.3131    2.4744    0.0000 C   0  0
   -3.9218    3.1508    0.0000 C   0  0
   -4.8126    2.9595    0.0000 N   0  0
   -5.0961    2.0946    0.0000 C   0  0
   -4.4845    1.4082    0.0000 C   0  0
   -1.8099   -0.6724    0.0000 C   0  0
   -1.2257    0.0335    0.0000 C   0  0
   -0.3289   -0.1238    0.0000 C   0  0
    0.2550    0.5771    0.0000 C   0  0
   -0.0653    1.4343    0.0000 C   0  0
   -0.9662    1.5827    0.0000 C   0  0
   -1.5465    0.8806    0.0000 C   0  0
   -3.1224   -2.3171    0.0000 C   0  0
   -3.8355   -2.8831    0.0000 C   0  0
   -3.7005   -3.7857    0.0000 C   0  0
   -2.8527   -4.1211    0.0000 C   0  0
   -2.1352   -3.5478    0.0000 C   0  0
   -2.2735   -2.6471    0.0000 C   0  0
   -1.5639   -2.0718    0.0000 O   0  0
   -0.7155   -2.4034    0.0000 C   0  0
   -0.0018   -1.8322    0.0000 C   0  0
    0.8465   -2.1596    0.0000 O   0  0
    1.5603   -1.5884    0.0000 C   0  0
   -0.0156   -0.9787    0.0000 C   0  0
    1.1543    0.4241    0.0000 F   0  0
  5  1  1  0
  1  2  2  0
  2  3  1  0
  3  4  2  0
  4  6  1  0
  5  6  2  0
  9 10  1  0
 10 11  2  0
 10 12  1  0
 12 13  1  0
 12 17  1  0
 13 14  1  0
 14 15  1  0
 15 16  1  0
 16 17  1  0
  8 18  1  0
 18 19  1  0
  7 25  1  0
 25 26  2  0
 26 27  1  0
 27 28  2  0
 28 29  1  0
 29 30  2  0
 30 25  1  0
 30 31  1  0
 31 32  1  0
 32 33  1  0
 33 34  1  0
 34 35  1  0
 19 20  2  0
 20 21  1  0
 21 22  2  0
 22 23  1  0
 23 24  2  0
 20 36  1  0
 21 37  1  0
 24 19  1  0
  6  7  1  0
  7  8  1  0
  8  9  2  0
  9  5  1  0
M  END
>  <ID_NEW>
CPDRE1180

>  <pIC50>
6.978810700930062

$$$$

  SciTegic12180813462D

 33 37  0  0  0  0            999 V2000
    4.8169   -1.5123    0.0000 N   0  0
    5.0725   -0.7249    0.0000 C   0  0
    4.5127   -0.1090    0.0000 C   0  0
    3.7055   -0.2848    0.0000 N   0  0
    3.4541   -1.0724    0.0000 C   0  0
    4.0098   -1.6840    0.0000 C   0  0
    5.3936   -5.0310    0.0000 C   0  0
    4.8420   -5.6513    0.0000 C   0  0
    5.1009   -6.4337    0.0000 C   0  0
    5.9115   -6.6040    0.0000 C   0  0
    6.4631   -5.9837    0.0000 C   0  0
    6.2001   -5.1972    0.0000 C   0  0
    5.1305   -4.2487    0.0000 N   0  0
    5.6137   -3.5720    0.0000 C   0  0
    5.1253   -2.9116    0.0000 C   0  0
    5.3768   -2.1241    0.0000 C   0  0
    6.1839   -1.9441    0.0000 O   0  0
    4.3431   -3.9931    0.0000 C   0  0
    4.3388   -3.1682    0.0000 C   0  0
    3.6231   -2.7621    0.0000 N   0  0
    2.9075   -3.1784    0.0000 C   0  0
    2.9116   -4.0034    0.0000 C   0  0
    3.6315   -4.4128    0.0000 C   0  0
    6.6710   -2.3035    0.0000 C   0  0
    7.1996   -1.6704    0.0000 C   0  0
    8.0157   -1.8056    0.0000 C   0  0
    8.3033   -2.5823    0.0000 C   0  0
    7.7747   -3.2138    0.0000 C   0  0
    6.9585   -3.0782    0.0000 C   0  0
    6.4299   -3.7159    0.0000 O   0  0
    8.0621   -3.9913    0.0000 C   0  0
    9.1194   -2.7175    0.0000 F   0  0
    6.9121   -0.8896    0.0000 F   0  0
 13  7  1  0
 27 28  1  0
 25 26  1  0
 28 31  1  0
 28 29  2  0
 29 24  1  0
 24 25  2  0
 29 30  1  0
 26 27  2  0
 27 32  1  0
 25 33  1  0
 14 30  1  0
 15 16  1  0
 16 17  2  0
 16  1  1  0
  3  4  1  0
  4  5  1  0
  5  6  1  0
  1  2  1  0
  1  6  1  0
  2  3  1  0
 10 11  1  0
 18 19  2  0
  8  9  1  0
 19 20  1  0
 11 12  2  0
 20 21  2  0
 12  7  1  0
 21 22  1  0
  7  8  2  0
 22 23  2  0
 23 18  1  0
 14 15  2  0
  9 10  2  0
 13 14  1  0
 15 19  1  0
 18 13  1  0
M  END
>  <ID_NEW>
CPDRE1181

>  <pIC50>
6.970616222314789

$$$$

  SciTegic12180814002D

 46 51  0  0  0  0            999 V2000
    0.4486   -5.9458    0.0000 C   0  0
    0.4474   -6.7731    0.0000 C   0  0
    1.1623   -7.1860    0.0000 C   0  0
    1.1605   -5.5330    0.0000 C   0  0
    2.6672   -5.6835    0.0000 C   0  0
    1.8758   -5.9421    0.0000 C   0  0
    1.8784   -6.7753    0.0000 C   0  0
    2.6722   -7.0290    0.0000 N   0  0
    3.1576   -6.3517    0.0000 C   0  0
    2.9195   -4.8981    0.0000 C   0  0
    2.3655   -4.2868    0.0000 O   0  0
    2.9316   -7.8122    0.0000 C   0  0
    2.3810   -8.4228    0.0000 C   0  0
    2.6398   -9.2054    0.0000 C   0  0
    3.4485   -9.3730    0.0000 C   0  0
    3.9979   -8.7518    0.0000 C   0  0
    3.7362   -7.9717    0.0000 C   0  0
    3.9826   -6.3470    0.0000 C   0  0
    3.6292   -4.4792    0.0000 N   0  0
    4.3467   -4.8865    0.0000 C   0  0
    5.0543   -4.4711    0.0000 C   0  0
    5.0506   -3.6466    0.0000 N   0  0
    4.3330   -3.2392    0.0000 C   0  0
    3.6192   -3.6564    0.0000 C   0  0
    4.3250   -2.4125    0.0000 C   0  0
    3.6066   -2.0070    0.0000 C   0  0
    3.5985   -1.1820    0.0000 N   0  0
    2.8961   -2.4264    0.0000 O   0  0
   -0.2674   -7.1851    0.0000 O   0  0
   -0.9816   -6.7720    0.0000 C   0  0
    4.3992   -7.0591    0.0000 C   0  0
    3.9889   -7.7752    0.0000 C   0  0
    4.4048   -8.4868    0.0000 C   0  0
    5.2306   -8.4826    0.0000 C   0  0
    5.6389   -7.7608    0.0000 C   0  0
    5.2206   -7.0521    0.0000 C   0  0
    5.6267   -6.3339    0.0000 C   0  0
    6.4638   -7.7531    0.0000 F   0  0
    4.3089   -0.7625    0.0000 C   0  0
    4.3008    0.0625    0.0000 C   0  0
    5.0174    0.4823    0.0000 C   0  0
    5.0113    1.3037    0.0000 C   0  0
    4.2946    1.7130    0.0000 O   0  0
    3.5824    1.2947    0.0000 C   0  0
    3.5869    0.4671    0.0000 C   0  0
    2.8800   -0.7765    0.0000 C   0  0
  5  6  1  0
 14 15  2  0
  7  8  1  0
 15 16  1  0
  8  9  1  0
 16 17  2  0
 17 12  1  0
  9  5  2  0
  5 10  1  0
 10 19  1  0
 19 20  1  0
 19 24  1  0
 20 21  1  0
 21 22  1  0
 22 23  1  0
 23 24  1  0
 23 25  1  0
 25 26  1  0
 26 27  1  0
 26 28  2  0
  2 29  1  0
 29 30  1  0
 18 31  1  0
 31 32  2  0
 32 33  1  0
 33 34  2  0
 34 35  1  0
 35 36  2  0
 36 31  1  0
 36 37  1  0
 35 38  1  0
 27 39  1  0
 10 11  2  0
  9 18  1  0
  1  2  2  0
  2  3  1  0
  3  7  2  0
  6  4  2  0
 39 40  1  0
 40 41  1  0
  8 12  1  0
  4  1  1  0
 12 13  2  0
  6  7  1  0
 13 14  1  0
 40 45  1  0
 41 42  1  0
 42 43  1  0
 43 44  1  0
 44 45  1  0
 27 46  1  0
M  END
>  <ID_NEW>
CPDRE1182

>  <pIC50>
6.970616222314789

$$$$

  SciTegic12180813562D

 32 36  0  0  0  0            999 V2000
   -0.7542    0.0917    0.0000 C   0  0
   -0.7542   -0.7333    0.0000 C   0  0
   -0.0421   -1.1417    0.0000 C   0  0
   -0.0421    0.5083    0.0000 C   0  0
    0.6699    0.0917    0.0000 N   0  0
    0.6698   -0.7344    0.0000 C   0  0
    1.4554   -0.9897    0.0000 C   0  0
    1.9410   -0.3214    0.0000 C   0  0
    1.4555    0.3468    0.0000 C   0  0
    1.7104    1.1314    0.0000 C   0  0
    2.5174    1.3029    0.0000 N   0  0
    1.1584    1.7445    0.0000 O   0  0
    3.0701    0.6848    0.0000 C   0  0
    3.8740    0.8537    0.0000 C   0  0
    4.1331    1.6373    0.0000 N   0  0
    3.5819    2.2524    0.0000 C   0  0
    2.7716    2.0840    0.0000 C   0  0
    1.7103   -1.7743    0.0000 C   0  0
    2.7660   -0.3214    0.0000 C   0  0
    3.1785   -1.0359    0.0000 C   0  0
    2.7649   -1.7480    0.0000 C   0  0
    3.1767   -2.4620    0.0000 C   0  0
    4.0026   -2.4624    0.0000 C   0  0
    4.4149   -1.7429    0.0000 C   0  0
    4.0008   -1.0319    0.0000 C   0  0
    1.1563   -2.3824    0.0000 C   0  0
    1.4106   -3.1664    0.0000 C   0  0
    2.2183   -3.3386    0.0000 C   0  0
    2.7713   -2.7207    0.0000 C   0  0
    2.5141   -1.9390    0.0000 C   0  0
    2.1750   -1.1583    0.0000 C   0  0
    4.4101   -0.3156    0.0000 C   0  0
 11 17  1  0
 13 14  1  0
 14 15  1  0
 15 16  1  0
 16 17  1  0
  7  8  1  0
  7 18  1  0
  8  9  2  0
  8 19  1  0
  9  5  1  0
 19 20  1  0
  5  4  1  0
 20 21  2  0
  9 10  1  0
 21 22  1  0
  5  6  1  0
 22 23  2  0
 10 11  1  0
 23 24  1  0
 24 25  2  0
 25 20  1  0
 10 12  2  0
 18 26  2  0
 11 13  1  0
 26 27  1  0
  1  2  1  0
 27 28  2  0
  1  4  2  0
 28 29  1  0
  2  3  2  0
 29 30  2  0
 30 18  1  0
  3  6  1  0
 21 31  1  0
  6  7  2  0
 25 32  1  0
M  END
>  <ID_NEW>
CPDRE1183

>  <pIC50>
6.966576244513049

$$$$

  SciTegic12180813532D

 32 36  0  0  0  0            999 V2000
    2.1436   -6.0461    0.0000 C   0  0
    1.4279   -6.4525    0.0000 C   0  0
    1.4231   -7.2737    0.0000 C   0  0
    2.1332   -7.6893    0.0000 C   0  0
    2.8496   -7.2779    0.0000 C   0  0
    2.8509   -6.4581    0.0000 C   0  0
    3.9378   -5.8674    0.0000 C   0  0
    3.5210   -6.5778    0.0000 C   0  0
    3.9278   -7.2918    0.0000 C   0  0
    4.7511   -7.2966    0.0000 C   0  0
    5.1660   -6.5815    0.0000 C   0  0
    4.7569   -5.8704    0.0000 C   0  0
    3.7958   -3.2375    0.0000 N   0  0
    4.2042   -3.9500    0.0000 C   0  0
    5.0208   -3.9526    0.0000 C   0  0
    5.4354   -3.2444    0.0000 N   0  0
    5.0270   -2.5319    0.0000 C   0  0
    4.2042   -2.5276    0.0000 C   0  0
    1.4776   -4.7411    0.0000 C   0  0
    1.6907   -3.9432    0.0000 C   0  0
    1.1069   -3.3616    0.0000 C   0  0
    0.3097   -3.5768    0.0000 C   0  0
    0.0996   -4.3789    0.0000 N   0  0
    0.6850   -4.9570    0.0000 C   0  0
    2.1500   -5.2250    0.0000 N   0  0
    2.8193   -4.7425    0.0000 C   0  0
    2.5625   -3.9542    0.0000 C   0  0
    3.5292   -5.1542    0.0000 O   0  0
    2.9708   -3.2375    0.0000 C   0  0
    2.3833   -2.6500    0.0000 O   0  0
    5.1625   -5.1500    0.0000 C   0  0
    2.8042   -6.1625    0.0000 C   0  0
 14 15  1  0
 15 16  1  0
 16 17  1  0
 17 18  1  0
  4  5  1  0
  9 10  2  0
 19 20  2  0
  2  3  1  0
 20 21  1  0
 10 11  1  0
 21 22  2  0
  5  6  2  0
 22 23  1  0
 11 12  2  0
 23 24  2  0
 24 19  1  0
 12  7  1  0
 13 14  1  0
 26 27  2  0
  6  1  1  0
 25 26  1  0
 27 20  1  0
 19 25  1  0
 25  1  1  0
  1  2  2  0
 26 28  1  0
 28  7  1  0
  3  4  2  0
 27 29  1  0
  7  8  2  0
 29 30  2  0
 29 13  1  0
 12 31  1  0
  8  9  1  0
  8 32  1  0
 13 18  1  0
M  END
>  <ID_NEW>
CPDRE1184

>  <pIC50>
6.950781977329818

$$$$

  -MTS-   10172316392D 0   0.00000     0.00000     0

 44 48  0  0  1  0  0  0  0  0999 V2000
   -1.4720    0.3380    0.0000 C   0  0  0  0  0  0  0  0  0  0  0  0
   -1.0850   -0.3810    0.0000 C   0  0  0  0  0  0  0  0  0  0  0  0
   -1.0640    1.0440    0.0000 C   0  0  0  0  0  0  0  0  0  0  0  0
   -2.3080    0.3500    0.0000 O   0  0  0  0  0  0  0  0  0  0  0  0
   -0.2500   -0.3930    0.0000 C   0  0  0  0  0  0  0  0  0  0  0  0
   -1.4930   -1.0980    0.0000 C   0  0  0  0  0  0  0  0  0  0  0  0
   -0.2280    1.0320    0.0000 C   0  0  0  0  0  0  0  0  0  0  0  0
   -1.4510    1.7740    0.0000 C   0  0  0  0  0  0  0  0  0  0  0  0
    0.1720    0.3090    0.0000 C   0  0  0  0  0  0  0  0  0  0  0  0
   -2.6290    2.4460    0.0000 N   0  0  0  0  0  0  0  0  0  0  0  0
   -1.8290    2.2330    0.0000 C   0  0  0  0  0  0  0  0  0  0  0  0
   -1.2500    2.8130    0.0000 C   0  0  0  0  0  0  0  0  0  0  0  0
   -2.2620    3.8290    0.0000 C   0  0  0  0  0  0  0  0  0  0  0  0
   -2.8500    3.2420    0.0000 C   0  0  0  0  0  0  0  0  0  0  0  0
   -5.8280    0.9690    0.0000 C   0  0  0  0  0  0  0  0  0  0  0  0
   -5.8290    0.1370    0.0000 C   0  0  0  0  0  0  0  0  0  0  0  0
   -5.1100   -0.2750    0.0000 C   0  0  0  0  0  0  0  0  0  0  0  0
   -5.1120    1.3860    0.0000 N   0  0  0  0  0  0  0  0  0  0  0  0
   -3.5970    1.2310    0.0000 C   0  0  0  0  0  0  0  0  0  0  0  0
   -4.3930    0.9730    0.0000 C   0  0  0  0  0  0  0  0  0  0  0  0
   -4.3900    0.1350    0.0000 C   0  0  0  0  0  0  0  0  0  0  0  0
   -3.5920   -0.1180    0.0000 N   0  0  0  0  0  0  0  0  0  0  0  0
   -3.1070    0.5630    0.0000 C   0  0  0  0  0  0  0  0  0  0  0  0
   -3.1710   -0.8420    0.0000 C   0  0  0  0  0  0  0  0  0  0  0  0
   -2.3500   -0.8270    0.0000 C   0  0  0  0  0  0  0  0  0  0  0  0
   -3.5850   -1.5510    0.0000 C   0  0  0  0  0  0  0  0  0  0  0  0
   -1.9260   -1.5480    0.0000 C   0  0  0  0  0  0  0  0  0  0  0  0
   -3.1660   -2.2720    0.0000 C   0  0  0  0  0  0  0  0  0  0  0  0
   -2.3340   -2.2740    0.0000 C   0  0  0  0  0  0  0  0  0  0  0  0
   -3.3450    2.0210    0.0000 C   0  0  0  0  0  0  0  0  0  0  0  0
   -3.9030    2.6360    0.0000 O   0  0  0  0  0  0  0  0  0  0  0  0
   -1.4710    3.6210    0.0000 N   0  0  0  0  0  0  0  0  0  0  0  0
   -0.5420    2.4040    0.0000 C   0  0  0  0  0  0  0  0  0  0  0  0
    0.1730    2.8170    0.0000 C   0  0  0  0  0  0  0  0  0  0  0  0
    0.1720    3.6420    0.0000 O   0  0  0  0  0  0  0  0  0  0  0  0
    1.0000    2.5710    0.0000 N   0  0  0  0  0  0  0  0  0  0  0  0
    1.5830    1.9870    0.0000 C   0  0  0  0  0  0  0  0  0  0  0  0
    2.1670    2.5750    0.0000 C   0  0  1  0  0  0  0  0  0  0  0  0
    2.7500    1.9920    0.0000 C   0  0  0  0  0  0  0  0  0  0  0  0
    3.3330    2.5790    0.0000 N   0  0  0  0  0  0  0  0  0  0  0  0
    2.7460    1.1670    0.0000 O   0  0  0  0  0  0  0  0  0  0  0  0
    2.1580    3.4000    0.0000 C   0  0  0  0  0  0  0  0  0  0  0  0
    4.1310    2.3680    0.0000 C   0  0  0  0  0  0  0  0  0  0  0  0
    3.1170    3.3750    0.0000 C   0  0  0  0  0  0  0  0  0  0  0  0
 21 22  1  0  0  0  0
 22 23  1  0  0  0  0
 23 19  2  0  0  0  0
 24 25  2  0  0  0  0
 24 26  1  0  0  0  0
 24 22  1  0  0  0  0
 25 27  1  0  0  0  0
 26 28  2  0  0  0  0
 27 29  2  0  0  0  0
 28 29  1  0  0  0  0
 18 15  2  0  0  0  0
 20 21  2  0  0  0  0
 16 17  2  0  0  0  0
 17 21  1  0  0  0  0
 15 16  1  0  0  0  0
 20 18  1  0  0  0  0
 19 20  1  0  0  0  0
 19 30  1  0  0  0  0
 23  4  1  0  0  0  0
 30 31  2  0  0  0  0
 30 10  1  0  0  0  0
 10 11  1  0  0  0  0
 12 32  1  0  0  0  0
 13 32  1  0  0  0  0
 10 14  1  0  0  0  0
 11 12  1  0  0  0  0
 12 33  1  0  0  0  0
 33 34  1  0  0  0  0
 34 35  2  0  0  0  0
  1  2  2  0  0  0  0
  1  3  1  0  0  0  0
  1  4  1  0  0  0  0
  2  5  1  0  0  0  0
  2  6  1  0  0  0  0
  3  7  2  0  0  0  0
  3  8  1  0  0  0  0
  7  9  1  0  0  0  0
  5  9  2  0  0  0  0
 13 14  1  0  0  0  0
 37 38  1  0  0  0  0
 38 39  1  0  0  0  0
 39 40  1  0  0  0  0
 39 41  2  0  0  0  0
 38 42  1  6  0  0  0
 40 43  1  0  0  0  0
 36 37  1  0  0  0  0
 40 44  1  0  0  0  0
 34 36  1  0  0  0  0
M  END
>  <ID_NEW>
CPDRE1185

>  <pIC50>
6.950781977329818

$$$$

  SciTegic12180813472D

 31 35  0  0  0  0            999 V2000
    5.1157   -5.5757    0.0000 C   0  0
    4.5286   -6.1569    0.0000 C   0  0
    4.7390   -6.9539    0.0000 C   0  0
    5.5359   -7.1707    0.0000 C   0  0
    6.1223   -6.5844    0.0000 C   0  0
    5.9089   -5.7897    0.0000 C   0  0
    3.5186   -5.6711    0.0000 C   0  0
    2.8029   -6.0775    0.0000 C   0  0
    2.7981   -6.8987    0.0000 C   0  0
    3.5082   -7.3143    0.0000 C   0  0
    4.2246   -6.9029    0.0000 C   0  0
    4.2259   -6.0831    0.0000 C   0  0
    4.3042   -2.1917    0.0000 N   0  0
    4.8875   -1.6042    0.0000 C   0  0
    4.6716   -0.8096    0.0000 C   0  0
    3.8723   -0.5962    0.0000 N   0  0
    3.2890   -1.1837    0.0000 C   0  0
    3.5049   -1.9846    0.0000 C   0  0
    2.8526   -4.3661    0.0000 C   0  0
    3.0657   -3.5682    0.0000 C   0  0
    2.4819   -2.9866    0.0000 N   0  0
    1.6847   -3.2018    0.0000 C   0  0
    1.4746   -4.0039    0.0000 C   0  0
    2.0600   -4.5820    0.0000 C   0  0
    3.5250   -4.8500    0.0000 N   0  0
    4.1943   -4.3675    0.0000 C   0  0
    3.9375   -3.5792    0.0000 C   0  0
    4.9042   -4.7792    0.0000 C   0  0
    4.5208   -2.9917    0.0000 C   0  0
    5.2333   -3.4042    0.0000 O   0  0
    6.4917   -5.2000    0.0000 C   0  0
 29 30  2  0
 29 13  1  0
  6 31  1  0
  7  8  2  0
  3  4  2  0
 13 18  1  0
 14 15  1  0
 15 16  1  0
 16 17  1  0
 17 18  1  0
  8  9  1  0
  1  2  2  0
 19 20  2  0
  9 10  2  0
 20 21  1  0
  4  5  1  0
 21 22  2  0
 10 11  1  0
 22 23  1  0
 23 24  2  0
 24 19  1  0
 11 12  2  0
 12  7  1  0
 26 27  2  0
 13 14  1  0
 25 26  1  0
 27 20  1  0
 19 25  1  0
 25  7  1  0
  5  6  2  0
 26 28  1  0
 28  1  1  0
  6  1  1  0
 27 29  1  0
  2  3  1  0
M  END
>  <ID_NEW>
CPDRE1186

>  <pIC50>
6.939302159646387

$$$$

  SciTegic12180813552D

 32 36  0  0  0  0            999 V2000
    1.8236   -3.5958    0.0000 C   0  0
    1.8224   -4.4232    0.0000 C   0  0
    2.5373   -4.8360    0.0000 C   0  0
    2.5355   -3.1830    0.0000 C   0  0
    4.0451   -4.6725    0.0000 N   0  0
    4.5285   -3.9993    0.0000 C   0  0
    4.0376   -3.3316    0.0000 C   0  0
    3.2508   -3.5922    0.0000 C   0  0
    3.2555   -4.4209    0.0000 C   0  0
    4.3045   -5.4557    0.0000 C   0  0
    3.7581   -6.0729    0.0000 C   0  0
    4.0144   -6.8533    0.0000 C   0  0
    4.8218   -7.0245    0.0000 O   0  0
    5.3725   -6.4089    0.0000 C   0  0
    5.1158   -5.6221    0.0000 C   0  0
    5.3535   -3.9947    0.0000 O   0  0
    4.2881   -2.5456    0.0000 C   0  0
    5.0940   -2.3695    0.0000 N   0  0
    3.7326   -1.9356    0.0000 O   0  0
    5.6512   -2.9812    0.0000 C   0  0
    6.4541   -2.8079    0.0000 C   0  0
    6.7087   -2.0228    0.0000 N   0  0
    6.1541   -1.4108    0.0000 C   0  0
    5.3447   -1.5838    0.0000 C   0  0
    6.0625   -4.4042    0.0000 C   0  0
    6.0597   -5.2240    0.0000 C   0  0
    6.7679   -5.6334    0.0000 C   0  0
    7.4780   -5.2241    0.0000 C   0  0
    7.4755   -4.4010    0.0000 C   0  0
    6.7667   -3.9953    0.0000 C   0  0
    6.7641   -3.1703    0.0000 C   0  0
    6.7674   -6.4584    0.0000 F   0  0
  1  2  2  0
  2  3  1  0
  3  9  2  0
  8  4  2  0
  4  1  1  0
  8  9  1  0
  6  7  2  0
  5  6  1  0
  7  8  1  0
  9  5  1  0
  5 10  1  0
 10 11  1  0
 10 15  1  0
 11 12  1  0
 12 13  1  0
 13 14  1  0
 14 15  1  0
  6 16  1  0
  7 17  1  0
 17 18  1  0
 17 19  2  0
 18 20  1  0
 18 24  1  0
 20 21  1  0
 21 22  1  0
 22 23  1  0
 23 24  1  0
 16 25  1  0
 25 26  2  0
 26 27  1  0
 27 28  2  0
 28 29  1  0
 29 30  2  0
 30 25  1  0
 30 31  1  0
 27 32  1  0
M  END
>  <ID_NEW>
CPDRE1187

>  <pIC50>
6.935542010773081

$$$$

  SciTegic12180813452D

 31 35  0  0  0  0            999 V2000
   -5.7056    1.5292    0.0000 C   0  0
   -5.7068    0.7018    0.0000 C   0  0
   -4.9919    0.2889    0.0000 C   0  0
   -4.9937    1.9419    0.0000 C   0  0
   -4.2824    1.5291    0.0000 C   0  0
   -4.2776    0.7060    0.0000 C   0  0
   -3.4932    0.4561    0.0000 N   0  0
   -3.0132    1.1249    0.0000 C   0  0
   -3.5010    1.7880    0.0000 C   0  0
   -3.2507    2.5741    0.0000 C   0  0
   -2.4447    2.7504    0.0000 N   0  0
   -3.8063    3.1840    0.0000 O   0  0
   -1.8905    2.1373    0.0000 C   0  0
   -1.0877    2.3109    0.0000 C   0  0
   -0.8332    3.0960    0.0000 N   0  0
   -1.3880    3.7079    0.0000 C   0  0
   -2.1973    3.5347    0.0000 C   0  0
   -3.5000   -0.3667    0.0000 C   0  0
   -4.2183   -0.7703    0.0000 C   0  0
   -4.2254   -1.5924    0.0000 C   0  0
   -3.5157   -2.0105    0.0000 C   0  0
   -2.7973   -1.6006    0.0000 C   0  0
   -2.7937   -0.7799    0.0000 C   0  0
   -2.2208    0.9125    0.0000 S   0  0
   -1.4250    0.7000    0.0000 C   0  0
   -1.2135   -0.0973    0.0000 C   0  0
   -0.4185   -0.3099    0.0000 C   0  0
    0.1644    0.2734    0.0000 C   0  0
   -0.0532    1.0723    0.0000 C   0  0
   -0.8478    1.2812    0.0000 C   0  0
   -1.7974   -0.6801    0.0000 Cl  0  0
 13 14  1  0
 14 15  1  0
 15 16  1  0
 16 17  1  0
  7 18  1  0
 18 19  2  0
 19 20  1  0
 20 21  2  0
 21 22  1  0
 22 23  2  0
 23 18  1  0
  8 24  1  0
 24 25  1  0
 25 26  2  0
 26 27  1  0
 27 28  2  0
 28 29  1  0
  1  2  2  0
 29 30  2  0
 30 25  1  0
  2  3  1  0
  3  6  2  0
  5  4  2  0
  4  1  1  0
  5  6  1  0
  6  7  1  0
  7  8  1  0
  8  9  2  0
  9  5  1  0
 26 31  1  0
  9 10  1  0
 10 11  1  0
 10 12  2  0
 11 13  1  0
 11 17  1  0
M  END
>  <ID_NEW>
CPDRE1188

>  <pIC50>
6.913640169325251

$$$$

  SciTegic12180813522D

 35 39  0  0  0  0            999 V2000
    5.9792   -0.8875    0.0000 N   0  0
    6.1917   -1.6833    0.0000 C   0  0
    6.9827   -1.8960    0.0000 C   0  0
    7.5669   -1.3161    0.0000 N   0  0
    7.3544   -0.5203    0.0000 C   0  0
    6.5577   -0.3043    0.0000 C   0  0
    6.0586   -2.9757    0.0000 C   0  0
    5.6419   -3.6861    0.0000 C   0  0
    6.0486   -4.4001    0.0000 C   0  0
    6.8720   -4.4049    0.0000 C   0  0
    7.2869   -3.6898    0.0000 C   0  0
    6.8777   -2.9787    0.0000 C   0  0
    4.1811   -3.3544    0.0000 C   0  0
    3.4654   -3.7608    0.0000 C   0  0
    3.4606   -4.5820    0.0000 C   0  0
    4.1707   -4.9976    0.0000 C   0  0
    4.8871   -4.5862    0.0000 C   0  0
    4.8884   -3.7664    0.0000 C   0  0
    3.5151   -2.0494    0.0000 C   0  0
    3.7282   -1.2515    0.0000 C   0  0
    3.1444   -0.6699    0.0000 C   0  0
    2.3472   -0.8851    0.0000 C   0  0
    2.1371   -1.6872    0.0000 C   0  0
    2.7225   -2.2653    0.0000 C   0  0
    4.1875   -2.5333    0.0000 N   0  0
    4.8568   -2.0508    0.0000 C   0  0
    4.6000   -1.2625    0.0000 C   0  0
    5.1833   -0.6750    0.0000 C   0  0
    4.9667    0.1250    0.0000 O   0  0
    5.6500   -2.2625    0.0000 O   0  0
    1.3333   -1.8958    0.0000 C   0  0
    7.2833   -2.2583    0.0000 C   0  0
    5.6292   -5.1125    0.0000 F   0  0
    0.7417   -1.3083    0.0000 O   0  0
    1.1125   -2.6917    0.0000 O   0  0
 10 11  1  0
 21 22  2  0
  4  5  1  0
 22 23  1  0
 11 12  2  0
 23 24  2  0
 24 19  1  0
 12  7  1  0
  5  6  1  0
 26 27  2  0
 25 26  1  0
 27 20  1  0
 19 25  1  0
 13 14  2  0
 27 28  1  0
  1  2  1  0
 28 29  2  0
 28  1  1  0
 14 15  1  0
 26 30  1  0
 30  7  1  0
 25 13  1  0
  7  8  2  0
 23 31  1  0
 15 16  2  0
  1  6  1  0
 12 32  1  0
 16 17  1  0
  9 33  1  0
  8  9  1  0
 17 18  2  0
 18 13  1  0
  2  3  1  0
  9 10  2  0
 19 20  2  0
  3  4  1  0
 31 34  1  0
 20 21  1  0
 31 35  2  0
M  END
>  <ID_NEW>
CPDRE1189

>  <pIC50>
6.913640169325251

$$$$

  SciTegic12180813462D

 32 36  0  0  0  0            999 V2000
    6.4818   -4.9208    0.0000 C   0  0
    6.4765   -5.7440    0.0000 C   0  0
    7.1857   -6.1584    0.0000 C   0  0
    7.9006   -5.7507    0.0000 C   0  0
    7.9019   -4.9244    0.0000 C   0  0
    7.1922   -4.5137    0.0000 C   0  0
    5.5083   -2.0542    0.0000 N   0  0
    6.2249   -1.6333    0.0000 C   0  0
    6.2203   -0.8084    0.0000 C   0  0
    5.5008   -0.3980    0.0000 N   0  0
    4.7841   -0.8147    0.0000 C   0  0
    4.7870   -1.6459    0.0000 C   0  0
    4.3768   -5.4045    0.0000 C   0  0
    3.6571   -5.8150    0.0000 C   0  0
    3.6522   -6.6404    0.0000 C   0  0
    4.3664   -7.0560    0.0000 C   0  0
    5.0870   -6.6446    0.0000 C   0  0
    5.0884   -5.8206    0.0000 C   0  0
    3.7067   -4.0911    0.0000 C   0  0
    3.9240   -3.2891    0.0000 C   0  0
    3.3360   -2.7075    0.0000 C   0  0
    2.5346   -2.9227    0.0000 N   0  0
    2.3246   -3.7289    0.0000 C   0  0
    2.9141   -4.3112    0.0000 C   0  0
    4.3832   -4.5792    0.0000 N   0  0
    5.0567   -4.0925    0.0000 C   0  0
    4.7999   -3.3001    0.0000 C   0  0
    5.5166   -2.8834    0.0000 C   0  0
    6.2332   -3.2959    0.0000 O   0  0
    5.7666   -4.5042    0.0000 O   0  0
    7.1875   -3.6875    0.0000 C   0  0
    7.1791   -6.9834    0.0000 F   0  0
 24 19  1  0
 18 13  1  0
 13 14  2  0
 26 27  2  0
 15 16  2  0
 25 26  1  0
 27 20  1  0
 19 25  1  0
 25 13  1  0
 19 20  2  0
 27 28  1  0
 20 21  1  0
 28 29  2  0
 28  7  1  0
  9 10  1  0
 10 11  1  0
 11 12  1  0
  7  8  1  0
  7 12  1  0
  8  9  1  0
 26 30  1  0
 30  1  1  0
  4  5  1  0
  6 31  1  0
  2  3  1  0
  3 32  1  0
  5  6  2  0
  6  1  1  0
  1  2  2  0
  3  4  2  0
 16 17  1  0
 21 22  2  0
 14 15  1  0
 22 23  1  0
 17 18  2  0
 23 24  2  0
M  END
>  <ID_NEW>
CPDRE1190

>  <pIC50>
6.910094888560602

$$$$

  SciTegic12180813082D

 32 36  0  0  0  0            999 V2000
   -5.8306    1.6459    0.0000 C   0  0
   -5.8318    0.8185    0.0000 C   0  0
   -5.1169    0.4057    0.0000 C   0  0
   -5.1187    2.0587    0.0000 C   0  0
   -4.4034    1.6495    0.0000 C   0  0
   -4.3985    0.8185    0.0000 C   0  0
   -3.6066    0.5663    0.0000 N   0  0
   -3.6145    1.9109    0.0000 C   0  0
   -3.1211    1.2406    0.0000 C   0  0
   -3.3643    2.6970    0.0000 C   0  0
   -2.5583    2.8734    0.0000 N   0  0
   -3.9199    3.3068    0.0000 O   0  0
   -2.0016    2.2595    0.0000 C   0  0
   -1.1988    2.4332    0.0000 C   0  0
   -0.9444    3.2183    0.0000 N   0  0
   -1.4992    3.8301    0.0000 C   0  0
   -2.3085    3.6568    0.0000 C   0  0
   -2.2961    1.2449    0.0000 C   0  0
   -1.5875    0.8334    0.0000 C   0  0
   -1.5923    0.0128    0.0000 C   0  0
   -0.8845   -0.3986    0.0000 C   0  0
   -0.1728    0.0094    0.0000 C   0  0
   -0.1734    0.8331    0.0000 C   0  0
   -0.8818    1.2408    0.0000 C   0  0
   -0.8823    2.0658    0.0000 F   0  0
   -2.3086   -0.3965    0.0000 F   0  0
   -3.6125   -0.2583    0.0000 C   0  0
   -4.3319   -0.6636    0.0000 C   0  0
   -4.3381   -1.4874    0.0000 C   0  0
   -3.6264   -1.9057    0.0000 C   0  0
   -2.9069   -1.4941    0.0000 C   0  0
   -2.9042   -0.6716    0.0000 C   0  0
  1  2  2  0
  2  3  1  0
  3  6  2  0
  5  4  2  0
  4  1  1  0
  5  6  1  0
  6  7  1  0
  7  9  1  0
  8  5  1  0
  8  9  2  0
  8 10  1  0
 10 11  1  0
 10 12  2  0
 11 13  1  0
 11 17  1  0
 13 14  1  0
 14 15  1  0
 15 16  1  0
 16 17  1  0
  9 18  1  0
 18 19  1  0
 19 20  2  0
 20 21  1  0
 21 22  2  0
 22 23  1  0
 23 24  2  0
 24 19  1  0
 24 25  1  0
 20 26  1  0
  7 27  1  0
 27 28  2  0
 28 29  1  0
 29 30  2  0
 30 31  1  0
 31 32  2  0
 32 27  1  0
M  END
>  <ID_NEW>
CPDRE1191

>  <pIC50>
6.910094888560602

$$$$

  SciTegic12180813472D

 33 37  0  0  0  0            999 V2000
   -3.8041    1.2708    0.0000 N   0  0
   -3.8083    2.0958    0.0000 C   0  0
   -4.5209    2.5025    0.0000 C   0  0
   -5.2339    2.0886    0.0000 N   0  0
   -5.2297    1.2636    0.0000 C   0  0
   -4.5126    0.8525    0.0000 C   0  0
   -5.7069   -0.3792    0.0000 C   0  0
   -5.7057   -1.2148    0.0000 C   0  0
   -4.9794   -1.6319    0.0000 C   0  0
   -4.9812    0.0378    0.0000 C   0  0
   -4.2617   -0.3755    0.0000 C   0  0
   -4.2527   -1.2103    0.0000 C   0  0
   -3.4610   -1.4611    0.0000 N   0  0
   -2.9708   -0.7855    0.0000 C   0  0
   -3.4689   -0.1114    0.0000 C   0  0
   -3.1973   -2.2526    0.0000 C   0  0
   -3.7531   -2.8725    0.0000 C   0  0
   -3.4941   -3.6633    0.0000 C   0  0
   -2.6771   -3.8308    0.0000 C   0  0
   -2.1194   -3.2054    0.0000 C   0  0
   -2.3854   -2.4169    0.0000 C   0  0
   -3.2143    0.6830    0.0000 C   0  0
   -2.4001    0.8592    0.0000 O   0  0
   -2.1458   -0.7819    0.0000 O   0  0
   -1.3208   -0.7792    0.0000 C   0  0
   -0.9078   -1.4946    0.0000 C   0  0
   -0.0836   -1.4922    0.0000 C   0  0
    0.3273   -0.7758    0.0000 C   0  0
   -0.0920   -0.0604    0.0000 C   0  0
   -0.9148   -0.0663    0.0000 C   0  0
   -1.3320    0.6455    0.0000 C   0  0
    0.3156    0.6569    0.0000 F   0  0
    0.3310   -2.2055    0.0000 F   0  0
 19 20  1  0
 20 21  2  0
 21 16  1  0
 15 22  1  0
 22 23  2  0
  7  8  2  0
 14 24  1  0
 24 25  1  0
 25 26  2  0
 26 27  1  0
 27 28  2  0
 28 29  1  0
 29 30  2  0
 30 25  1  0
 30 31  1  0
 29 32  1  0
 27 33  1  0
  8  9  1  0
  9 12  2  0
 11 10  2  0
 10  7  1  0
 11 12  1  0
 12 13  1  0
 13 14  1  0
 14 15  2  0
 15 11  1  0
 13 16  1  0
 16 17  2  0
 22  1  1  0
  2  3  1  0
  3  4  1  0
  4  5  1  0
  5  6  1  0
  1  2  1  0
  1  6  1  0
 17 18  1  0
 18 19  2  0
M  END
>  <ID_NEW>
CPDRE1192

>  <pIC50>
6.910094888560602

$$$$

  SciTegic12180813072D

 31 35  0  0  0  0            999 V2000
   -5.7056    0.3751    0.0000 C   0  0
   -5.7068   -0.4523    0.0000 C   0  0
   -4.9920   -0.8652    0.0000 C   0  0
   -4.9938    0.7878    0.0000 C   0  0
   -4.2784    0.3787    0.0000 C   0  0
   -4.2736   -0.4477    0.0000 C   0  0
   -3.4861   -0.6986    0.0000 N   0  0
   -3.0041   -0.0271    0.0000 C   0  0
   -3.4939    0.6386    0.0000 C   0  0
   -3.2266   -1.4817    0.0000 C   0  0
   -3.7781   -2.0933    0.0000 C   0  0
   -3.5192   -2.8758    0.0000 C   0  0
   -2.7104   -3.0432    0.0000 C   0  0
   -2.1611   -2.4220    0.0000 C   0  0
   -2.4230   -1.6419    0.0000 C   0  0
   -3.2436    1.4247    0.0000 C   0  0
   -2.4376    1.6010    0.0000 O   0  0
   -3.7992    2.0346    0.0000 N   0  0
   -3.5468    2.8176    0.0000 C   0  0
   -4.0985    3.4261    0.0000 C   0  0
   -4.9057    3.2539    0.0000 N   0  0
   -5.1582    2.4675    0.0000 C   0  0
   -4.6035    1.8533    0.0000 C   0  0
   -2.1791   -0.0222    0.0000 C   0  0
   -1.7624   -0.7343    0.0000 C   0  0
   -2.1733   -1.4498    0.0000 C   0  0
   -1.7573   -2.1614    0.0000 C   0  0
   -0.9314   -2.1570    0.0000 C   0  0
   -0.5233   -1.4351    0.0000 C   0  0
   -0.9417   -0.7265    0.0000 C   0  0
   -0.5361   -0.0081    0.0000 C   0  0
 18 19  1  0
 18 23  1  0
 19 20  1  0
 20 21  1  0
 21 22  1  0
 22 23  1  0
  8 24  1  0
 24 25  1  0
 25 26  2  0
 26 27  1  0
 27 28  2  0
 28 29  1  0
 29 30  2  0
 30 25  1  0
 30 31  1  0
  1  2  2  0
  2  3  1  0
  3  6  2  0
  5  4  2  0
  4  1  1  0
  5  6  1  0
  6  7  1  0
  7  8  1  0
  8  9  2  0
  9  5  1  0
  7 10  1  0
 10 11  2  0
 11 12  1  0
 12 13  2  0
 13 14  1  0
 14 15  2  0
 15 10  1  0
  9 16  1  0
 16 17  2  0
 16 18  1  0
M  END
>  <ID_NEW>
CPDRE1193

>  <pIC50>
6.906578314837764

$$$$

  SciTegic12180813542D

 32 36  0  0  0  0            999 V2000
    3.9194   -3.2583    0.0000 C   0  0
    3.9182   -4.0857    0.0000 C   0  0
    4.6330   -4.4985    0.0000 N   0  0
    4.6312   -2.8455    0.0000 N   0  0
    5.3466   -3.2547    0.0000 C   0  0
    5.3469   -4.0857    0.0000 C   0  0
    6.1373   -4.3423    0.0000 N   0  0
    6.6257   -3.6698    0.0000 C   0  0
    6.1369   -2.9977    0.0000 C   0  0
    6.3916   -2.2130    0.0000 C   0  0
    7.1985   -2.0412    0.0000 O   0  0
    5.8394   -1.6001    0.0000 N   0  0
    7.4507   -3.6695    0.0000 C   0  0
    7.8634   -4.3838    0.0000 C   0  0
    7.4476   -5.0971    0.0000 C   0  0
    7.8597   -5.8109    0.0000 C   0  0
    8.6856   -5.8111    0.0000 C   0  0
    9.0977   -5.0915    0.0000 C   0  0
    8.6832   -4.3806    0.0000 C   0  0
    6.3921   -5.1239    0.0000 C   0  0
    5.8384   -5.7371    0.0000 C   0  0
    6.0930   -6.5210    0.0000 C   0  0
    6.9008   -6.6930    0.0000 C   0  0
    7.4536   -6.0748    0.0000 C   0  0
    7.1960   -5.2932    0.0000 C   0  0
    9.0928   -3.6644    0.0000 C   0  0
    9.9227   -5.0883    0.0000 F   0  0
    6.0997   -0.8116    0.0000 C   0  0
    5.5513   -0.2000    0.0000 C   0  0
    4.7432   -0.3677    0.0000 N   0  0
    4.4864   -1.1527    0.0000 C   0  0
    5.0376   -1.7700    0.0000 C   0  0
  8  9  2  0
 18 19  2  0
 19 14  1  0
  9  5  1  0
  4  1  1  0
 20 21  2  0
  9 10  1  0
 21 22  1  0
  5  6  1  0
 22 23  2  0
 10 11  2  0
 23 24  1  0
 24 25  2  0
 25 20  1  0
  7 20  1  0
 10 12  1  0
 19 26  1  0
  2  3  1  0
 18 27  1  0
 12 28  1  0
  8 13  1  0
  3  6  2  0
 13 14  1  0
  1  2  2  0
 12 32  1  0
 28 29  1  0
 29 30  1  0
 30 31  1  0
 31 32  1  0
 14 15  2  0
  5  4  2  0
 15 16  1  0
  6  7  1  0
 16 17  2  0
  7  8  1  0
 17 18  1  0
M  END
>  <ID_NEW>
CPDRE1194

>  <pIC50>
6.903089986991943

$$$$

  -MTS-   10172316392D 0   0.00000     0.00000     0

 45 49  0  0  1  0  0  0  0  0999 V2000
   -1.4720    0.3380    0.0000 C   0  0  0  0  0  0  0  0  0  0  0  0
   -1.0850   -0.3810    0.0000 C   0  0  0  0  0  0  0  0  0  0  0  0
   -1.0640    1.0440    0.0000 C   0  0  0  0  0  0  0  0  0  0  0  0
   -2.3080    0.3500    0.0000 O   0  0  0  0  0  0  0  0  0  0  0  0
   -0.2500   -0.3930    0.0000 C   0  0  0  0  0  0  0  0  0  0  0  0
   -1.4930   -1.0980    0.0000 C   0  0  0  0  0  0  0  0  0  0  0  0
   -0.2280    1.0320    0.0000 C   0  0  0  0  0  0  0  0  0  0  0  0
   -1.4510    1.7740    0.0000 C   0  0  0  0  0  0  0  0  0  0  0  0
    0.1720    0.3090    0.0000 C   0  0  0  0  0  0  0  0  0  0  0  0
   -2.6290    2.4460    0.0000 N   0  0  0  0  0  0  0  0  0  0  0  0
   -1.8290    2.2330    0.0000 C   0  0  0  0  0  0  0  0  0  0  0  0
   -1.2500    2.8130    0.0000 C   0  0  0  0  0  0  0  0  0  0  0  0
   -2.2620    3.8290    0.0000 C   0  0  0  0  0  0  0  0  0  0  0  0
   -2.8500    3.2420    0.0000 C   0  0  0  0  0  0  0  0  0  0  0  0
   -5.8280    0.9690    0.0000 C   0  0  0  0  0  0  0  0  0  0  0  0
   -5.8290    0.1370    0.0000 C   0  0  0  0  0  0  0  0  0  0  0  0
   -5.1100   -0.2750    0.0000 C   0  0  0  0  0  0  0  0  0  0  0  0
   -5.1120    1.3860    0.0000 N   0  0  0  0  0  0  0  0  0  0  0  0
   -3.5970    1.2310    0.0000 C   0  0  0  0  0  0  0  0  0  0  0  0
   -4.3930    0.9730    0.0000 C   0  0  0  0  0  0  0  0  0  0  0  0
   -4.3900    0.1350    0.0000 C   0  0  0  0  0  0  0  0  0  0  0  0
   -3.5920   -0.1180    0.0000 N   0  0  0  0  0  0  0  0  0  0  0  0
   -3.1070    0.5630    0.0000 C   0  0  0  0  0  0  0  0  0  0  0  0
   -3.1710   -0.8420    0.0000 C   0  0  0  0  0  0  0  0  0  0  0  0
   -2.3500   -0.8270    0.0000 C   0  0  0  0  0  0  0  0  0  0  0  0
   -3.5850   -1.5510    0.0000 C   0  0  0  0  0  0  0  0  0  0  0  0
   -1.9260   -1.5480    0.0000 C   0  0  0  0  0  0  0  0  0  0  0  0
   -3.1660   -2.2720    0.0000 C   0  0  0  0  0  0  0  0  0  0  0  0
   -2.3340   -2.2740    0.0000 C   0  0  0  0  0  0  0  0  0  0  0  0
   -3.3450    2.0210    0.0000 C   0  0  0  0  0  0  0  0  0  0  0  0
   -3.9030    2.6360    0.0000 O   0  0  0  0  0  0  0  0  0  0  0  0
   -1.4710    3.6210    0.0000 N   0  0  0  0  0  0  0  0  0  0  0  0
   -0.5420    2.4040    0.0000 C   0  0  0  0  0  0  0  0  0  0  0  0
    0.1730    2.8170    0.0000 C   0  0  0  0  0  0  0  0  0  0  0  0
    0.1720    3.6420    0.0000 O   0  0  0  0  0  0  0  0  0  0  0  0
    0.8960    2.4000    0.0000 N   0  0  0  0  0  0  0  0  0  0  0  0
    1.4790    1.8170    0.0000 C   0  0  0  0  0  0  0  0  0  0  0  0
    2.0620    2.4040    0.0000 C   0  0  2  0  0  0  0  0  0  0  0  0
    2.6460    1.8210    0.0000 C   0  0  0  0  0  0  0  0  0  0  0  0
    3.2290    2.4080    0.0000 N   0  0  0  0  0  0  0  0  0  0  0  0
    2.6420    0.9960    0.0000 O   0  0  0  0  0  0  0  0  0  0  0  0
    4.0270    2.1980    0.0000 C   0  0  0  0  0  0  0  0  0  0  0  0
    3.0130    3.2040    0.0000 C   0  0  0  0  0  0  0  0  0  0  0  0
    2.0540    3.2290    0.0000 C   0  0  0  0  0  0  0  0  0  0  0  0
    2.8500    3.4460    0.0000 C   0  0  0  0  0  0  0  0  0  0  0  0
 22 23  1  0  0  0  0
 23 19  2  0  0  0  0
 24 25  2  0  0  0  0
 24 26  1  0  0  0  0
 24 22  1  0  0  0  0
 25 27  1  0  0  0  0
 26 28  2  0  0  0  0
 27 29  2  0  0  0  0
 28 29  1  0  0  0  0
 18 15  2  0  0  0  0
 20 21  2  0  0  0  0
 16 17  2  0  0  0  0
 17 21  1  0  0  0  0
 15 16  1  0  0  0  0
 20 18  1  0  0  0  0
 19 20  1  0  0  0  0
 19 30  1  0  0  0  0
 23  4  1  0  0  0  0
 30 31  2  0  0  0  0
 30 10  1  0  0  0  0
 10 11  1  0  0  0  0
 12 32  1  0  0  0  0
 13 32  1  0  0  0  0
 10 14  1  0  0  0  0
 11 12  1  0  0  0  0
 12 33  1  0  0  0  0
 33 34  1  0  0  0  0
 34 35  2  0  0  0  0
  1  2  2  0  0  0  0
  1  3  1  0  0  0  0
  1  4  1  0  0  0  0
  2  5  1  0  0  0  0
  2  6  1  0  0  0  0
  3  7  2  0  0  0  0
  3  8  1  0  0  0  0
  7  9  1  0  0  0  0
  5  9  2  0  0  0  0
 13 14  1  0  0  0  0
 21 22  1  0  0  0  0
 37 38  1  0  0  0  0
 38 39  1  0  0  0  0
 39 40  1  0  0  0  0
 39 41  2  0  0  0  0
 40 42  1  0  0  0  0
 36 37  1  0  0  0  0
 40 43  1  0  0  0  0
 44 45  1  0  0  0  0
 38 44  1  1  0  0  0
 34 36  1  0  0  0  0
M  END
>  <ID_NEW>
CPDRE1195

>  <pIC50>
6.903089986991943

$$$$

  SciTegic12180813102D

 37 41  0  0  0  0            999 V2000
    4.3181   -1.2419    0.0000 N   0  0
    4.4267   -0.4220    0.0000 C   0  0
    3.7727    0.0822    0.0000 C   0  0
    3.0102   -0.2336    0.0000 N   0  0
    2.9016   -1.0492    0.0000 C   0  0
    3.5514   -1.5534    0.0000 C   0  0
    2.6499   -2.8318    0.0000 C   0  0
    2.6502   -3.6568    0.0000 C   0  0
    3.3701   -4.0659    0.0000 C   0  0
    3.3613   -2.4160    0.0000 C   0  0
    4.0771   -2.8210    0.0000 C   0  0
    4.0816   -3.6460    0.0000 C   0  0
    4.8691   -3.8972    0.0000 N   0  0
    5.3480   -3.2286    0.0000 C   0  0
    4.8593   -2.5618    0.0000 C   0  0
    5.1283   -4.6794    0.0000 C   0  0
    4.5769   -5.2999    0.0000 C   0  0
    4.8362   -6.0821    0.0000 C   0  0
    5.6467   -6.2480    0.0000 C   0  0
    6.1940   -5.6317    0.0000 C   0  0
    5.9348   -4.8495    0.0000 C   0  0
    4.9679   -1.7461    0.0000 C   0  0
    5.7346   -1.4303    0.0000 O   0  0
    6.4821   -4.2332    0.0000 O   0  0
    7.2511   -4.5371    0.0000 C   0  0
    7.7983   -3.9208    0.0000 C   0  0
    8.5632   -4.2247    0.0000 C   0  0
    9.1146   -3.6085    0.0000 O   0  0
    9.9211   -3.7744    0.0000 C   0  0
    6.5692   -2.6481    0.0000 C   0  0
    7.3942   -2.6437    0.0000 C   0  0
    6.1534   -1.9367    0.0000 C   0  0
    6.1600   -3.3681    0.0000 O   0  0
    7.8034   -1.9278    0.0000 C   0  0
    7.8099   -3.3550    0.0000 F   0  0
    6.5626   -1.2209    0.0000 C   0  0
    7.3875   -1.2164    0.0000 C   0  0
 22 23  2  0
  7  8  2  0
  8  9  1  0
  9 12  2  0
 21 24  1  0
 25 26  1  0
 26 27  1  0
 27 28  1  0
 28 29  1  0
 24 25  1  0
 11 10  2  0
 10  7  1  0
 11 12  1  0
 12 13  1  0
 13 14  1  0
 14 15  2  0
 15 11  1  0
 13 16  1  0
 16 17  2  0
 22  1  1  0
  2  3  1  0
  3  4  1  0
  4  5  1  0
  5  6  1  0
  1  2  1  0
  1  6  1  0
 17 18  1  0
 18 19  2  0
 19 20  1  0
 20 21  2  0
 21 16  1  0
 15 22  1  0
 30 31  2  0
 30 32  1  0
 30 33  1  0
 31 34  1  0
 31 35  1  0
 32 36  2  0
 34 37  2  0
 36 37  1  0
 14 33  1  0
M  END
>  <ID_NEW>
CPDRE1196

>  <pIC50>
6.892790030352131

$$$$

  SciTegic12180813482D

 35 39  0  0  0  0            999 V2000
   -4.1563   -1.4824    0.0000 C   0  0
   -4.9372   -1.9380    0.0000 C   0  0
   -4.9301   -2.8379    0.0000 C   0  0
   -4.1422   -3.2865    0.0000 C   0  0
   -3.3726   -1.9268    0.0000 C   0  0
   -3.3654   -2.8267    0.0000 C   0  0
   -2.5063   -3.1005    0.0000 N   0  0
   -1.9795   -2.3679    0.0000 C   0  0
   -2.5203   -1.6401    0.0000 C   0  0
   -2.2237   -3.9568    0.0000 C   0  0
   -2.8190   -4.6333    0.0000 C   0  0
   -2.5365   -5.4896    0.0000 C   0  0
   -1.6503   -5.6697    0.0000 C   0  0
   -1.0509   -4.9933    0.0000 C   0  0
   -1.3376   -4.1369    0.0000 C   0  0
   -2.2467   -0.7810    0.0000 C   0  0
   -1.3651   -0.5872    0.0000 O   0  0
   -2.8545   -0.1154    0.0000 N   0  0
   -2.5809    0.7479    0.0000 C   0  0
   -3.1887    1.4134    0.0000 C   0  0
   -4.0702    1.2197    0.0000 N   0  0
   -4.3439    0.3564    0.0000 C   0  0
   -3.7360   -0.3091    0.0000 C   0  0
   -1.3678   -6.5261    0.0000 F   0  0
   -5.7068   -3.2976    0.0000 O   0  0
   -5.6998   -4.1976    0.0000 C   0  0
   -0.5199   -1.8193    0.0000 C   0  0
    0.3717   -1.9729    0.0000 C   0  0
   -0.8310   -0.9761    0.0000 C   0  0
   -1.0921   -2.5173    0.0000 O   0  0
    0.9440   -1.2749    0.0000 C   0  0
    0.6870   -2.8160    0.0000 C   0  0
   -0.2587   -0.2824    0.0000 C   0  0
    0.6329   -0.4318    0.0000 C   0  0
   -0.5740    0.5650    0.0000 F   0  0
  3 25  1  0
 25 26  1  0
  6  7  1  0
  7  8  1  0
  8  9  2  0
  9  5  1  0
  7 10  1  0
 10 11  2  0
 11 12  1  0
 27 28  2  0
 27 29  1  0
 27 30  1  0
 28 31  1  0
 28 32  1  0
 29 33  2  0
 31 34  2  0
 33 35  1  0
 33 34  1  0
  8 30  1  0
 12 13  2  0
 13 14  1  0
 14 15  2  0
 15 10  1  0
  5  1  1  0
  1  2  2  0
  2  3  1  0
  3  4  2  0
  4  6  1  0
  5  6  2  0
  9 16  1  0
 16 17  2  0
 16 18  1  0
 18 19  1  0
 18 23  1  0
 19 20  1  0
 20 21  1  0
 21 22  1  0
 22 23  1  0
 13 24  1  0
M  END
>  <ID_NEW>
CPDRE1197

>  <pIC50>
6.8794260687941495

$$$$

  SciTegic12180813522D

 37 41  0  0  0  0            999 V2000
    5.9432   -5.6588    0.0000 C   0  0
    5.7259   -6.4526    0.0000 C   0  0
    6.3041   -7.0357    0.0000 C   0  0
    7.0997   -6.8262    0.0000 C   0  0
    7.3140   -6.0283    0.0000 C   0  0
    6.7343   -5.4487    0.0000 C   0  0
    4.2586   -6.5383    0.0000 C   0  0
    3.8419   -7.2486    0.0000 C   0  0
    4.2486   -7.9626    0.0000 C   0  0
    5.0720   -7.9674    0.0000 C   0  0
    5.4869   -7.2523    0.0000 C   0  0
    5.0777   -6.5413    0.0000 C   0  0
    5.2542   -3.4750    0.0000 N   0  0
    5.8375   -4.0583    0.0000 C   0  0
    6.6299   -3.8460    0.0000 C   0  0
    6.8455   -3.0503    0.0000 N   0  0
    6.2622   -2.4670    0.0000 C   0  0
    5.4633   -2.6793    0.0000 C   0  0
    4.0486   -5.7450    0.0000 N   0  0
    4.5356   -5.0786    0.0000 C   0  0
    4.0523   -4.4096    0.0000 C   0  0
    3.2667   -4.6625    0.0000 C   0  0
    3.2644   -5.4879    0.0000 C   0  0
    1.8402   -4.6666    0.0000 C   0  0
    1.8391   -5.4940    0.0000 C   0  0
    2.5539   -5.9069    0.0000 C   0  0
    2.5521   -4.2539    0.0000 C   0  0
    1.1208   -5.9000    0.0000 O   0  0
    0.4042   -5.4875    0.0000 C   0  0
   -0.3125   -5.8958    0.0000 C   0  0
   -1.0292   -5.4833    0.0000 O   0  0
   -0.3167   -6.7208    0.0000 O   0  0
    5.3583   -5.0750    0.0000 O   0  0
    4.4583   -3.6917    0.0000 C   0  0
    4.0417   -2.9750    0.0000 O   0  0
    6.0833   -7.8292    0.0000 F   0  0
    6.9458   -4.6458    0.0000 C   0  0
  8  9  1  0
  1  2  2  0
 20 21  2  0
  9 10  2  0
  4  5  1  0
 10 11  1  0
 19 20  1  0
 21 22  1  0
 23 19  1  0
 11 12  2  0
 24 25  2  0
 12  7  1  0
 25 26  1  0
 26 23  2  0
 13 14  1  0
 22 27  2  0
 27 24  1  0
 19  7  1  0
  5  6  2  0
 25 28  1  0
  6  1  1  0
 28 29  1  0
  2  3  1  0
 29 30  1  0
 30 31  1  0
  7  8  2  0
 30 32  2  0
  3  4  2  0
 20 33  1  0
 33  1  1  0
 13 18  1  0
 21 34  1  0
 14 15  1  0
 34 35  2  0
 34 13  1  0
 15 16  1  0
  3 36  1  0
 16 17  1  0
  6 37  1  0
 17 18  1  0
 22 23  1  0
M  END
>  <ID_NEW>
CPDRE1198

>  <pIC50>
6.8794260687941495

$$$$

  SciTegic12180813522D

 33 37  0  0  0  0            999 V2000
    0.4069   -4.6958    0.0000 C   0  0
    0.4058   -5.5232    0.0000 C   0  0
    1.1206   -5.9361    0.0000 C   0  0
    1.1188   -4.2831    0.0000 C   0  0
    2.6241   -5.7786    0.0000 N   0  0
    3.1119   -5.1068    0.0000 C   0  0
    2.6236   -4.4354    0.0000 C   0  0
    1.8342   -4.6922    0.0000 C   0  0
    1.8344   -5.5224    0.0000 C   0  0
    2.8793   -6.5631    0.0000 C   0  0
    2.3250   -7.1748    0.0000 C   0  0
    2.5797   -7.9587    0.0000 C   0  0
    3.3875   -8.1306    0.0000 C   0  0
    3.9402   -7.5124    0.0000 C   0  0
    3.6826   -6.7308    0.0000 C   0  0
   -0.3076   -4.2835    0.0000 O   0  0
    2.8782   -3.6506    0.0000 C   0  0
    3.6851   -3.4788    0.0000 O   0  0
    2.3259   -3.0378    0.0000 N   0  0
    2.5835   -2.2535    0.0000 C   0  0
    2.0351   -1.6420    0.0000 C   0  0
    1.2270   -1.8098    0.0000 N   0  0
    0.9703   -2.5949    0.0000 C   0  0
    1.5216   -3.2121    0.0000 C   0  0
    3.9369   -5.1064    0.0000 C   0  0
    4.6459   -5.5166    0.0000 C   0  0
    4.6423   -6.3368    0.0000 C   0  0
    5.3504   -6.7470    0.0000 C   0  0
    6.0612   -6.3380    0.0000 C   0  0
    6.0593   -5.5147    0.0000 C   0  0
    5.3506   -5.1082    0.0000 C   0  0
    3.9267   -6.7473    0.0000 C   0  0
    5.3488   -4.2832    0.0000 Cl  0  0
  8  4  2  0
 19 24  1  0
 20 21  1  0
 21 22  1  0
 22 23  1  0
 23 24  1  0
  4  1  1  0
  8  9  1  0
  6  7  2  0
  5  6  1  0
  7  8  1  0
  9  5  1  0
  5 10  1  0
  6 25  1  0
 10 11  2  0
 11 12  1  0
 12 13  2  0
 13 14  1  0
 14 15  2  0
 15 10  1  0
  1 16  1  0
 25 26  1  0
  7 17  1  0
 26 27  2  0
 17 18  2  0
 27 28  1  0
 17 19  1  0
 28 29  2  0
 19 20  1  0
 29 30  1  0
  1  2  2  0
 30 31  2  0
 31 26  1  0
  2  3  1  0
 27 32  1  0
  3  9  2  0
 31 33  1  0
M  END
>  <ID_NEW>
CPDRE1199

>  <pIC50>
6.866461091629782

$$$$

  SciTegic12180813522D

 36 40  0  0  0  0            999 V2000
   -3.8880    3.4312    0.0000 N   0  0
   -3.9063    2.6054    0.0000 C   0  0
   -3.1541    3.8326    0.0000 C   0  0
   -3.1994    2.1724    0.0000 C   0  0
   -2.4459    3.4043    0.0000 C   0  0
   -2.4656    2.5738    0.0000 N   0  0
   -4.3823    0.9148    0.0000 C   0  0
   -4.3835    0.0874    0.0000 C   0  0
   -3.6687   -0.3254    0.0000 C   0  0
   -3.6705    1.3276    0.0000 C   0  0
   -2.1638    1.1771    0.0000 C   0  0
   -2.9551    0.9184    0.0000 C   0  0
   -2.9525    0.0853    0.0000 C   0  0
   -2.1587   -0.1684    0.0000 N   0  0
   -1.6734    0.5089    0.0000 C   0  0
   -1.7381   -0.8875    0.0000 C   0  0
   -0.9208   -0.8728    0.0000 C   0  0
   -2.1515   -1.5927    0.0000 C   0  0
   -0.5015   -1.5895    0.0000 C   0  0
   -1.7323   -2.3094    0.0000 C   0  0
   -0.9049   -2.3120    0.0000 C   0  0
   -1.9115    1.9625    0.0000 C   0  0
   -1.1051    2.1367    0.0000 O   0  0
   -5.0983   -0.3245    0.0000 S   0  0
   -5.8124    0.0885    0.0000 O   0  0
   -5.0989   -1.1495    0.0000 O   0  0
   -5.8167   -0.7292    0.0000 C   0  0
   -0.8792    0.3000    0.0000 O   0  0
   -0.1667    0.7167    0.0000 C   0  0
    0.5500    0.3050    0.0000 C   0  0
    1.2620    0.7210    0.0000 C   0  0
    1.2578    1.5472    0.0000 C   0  0
    0.5357    1.9558    0.0000 C   0  0
   -0.1733    1.5374    0.0000 C   0  0
    0.5530   -0.5200    0.0000 C   0  0
    0.5282    2.7807    0.0000 F   0  0
  2  4  1  0
  3  5  1  0
  4  6  1  0
  5  6  1  0
  1  2  1  0
  1  3  1  0
 13 14  1  0
 14 15  1  0
 15 11  2  0
 16 17  1  0
 16 18  2  0
 16 14  1  0
 17 19  2  0
 18 20  1  0
 19 21  1  0
 20 21  2  0
 10  7  2  0
 12 13  2  0
  8  9  2  0
  9 13  1  0
  7  8  1  0
 12 10  1  0
 11 12  1  0
 11 22  1  0
 22 23  2  0
  8 24  1  0
 24 25  2  0
 24 26  2  0
 24 27  1  0
 15 28  1  0
 28 29  1  0
 29 30  2  0
 30 31  1  0
 31 32  2  0
 32 33  1  0
 33 34  2  0
 34 29  1  0
 30 35  1  0
 33 36  1  0
 22  6  1  0
M  END
>  <ID_NEW>
CPDRE1200

>  <pIC50>
6.853871964321761

$$$$

  SciTegic12180814002D

 46 51  0  0  0  0            999 V2000
    6.2333   -7.6542    0.0000 C   0  0
    6.2295   -8.4786    0.0000 C   0  0
    6.9412   -8.8910    0.0000 C   0  0
    7.6557   -8.4801    0.0000 C   0  0
    7.6540   -7.6526    0.0000 C   0  0
    6.9418   -7.2439    0.0000 C   0  0
    6.9375   -6.4167    0.0000 C   0  0
    8.2333   -7.0625    0.0000 F   0  0
    4.3526   -8.7819    0.0000 C   0  0
    3.6355   -9.1921    0.0000 C   0  0
    3.6333  -10.0163    0.0000 C   0  0
    4.3474  -10.4314    0.0000 C   0  0
    5.0651  -10.0160    0.0000 C   0  0
    5.0638   -9.1931    0.0000 C   0  0
    9.7958   -5.6875    0.0000 C   0  0
    9.7916   -6.5125    0.0000 C   0  0
   10.5001   -6.9263    0.0000 C   0  0
   11.2172   -6.5197    0.0000 O   0  0
   11.2214   -5.6947    0.0000 C   0  0
   10.5084   -5.2763    0.0000 C   0  0
    6.3660   -5.4554    0.0000 C   0  0
    6.5574   -4.6517    0.0000 N   0  0
    4.9810   -5.1299    0.0000 N   0  0
    5.5821   -5.6931    0.0000 C   0  0
    5.9541   -4.0912    0.0000 C   0  0
    5.1638   -4.3291    0.0000 C   0  0
    4.3796   -6.6118    0.0000 C   0  0
    4.3606   -7.9572    0.0000 N   0  0
    4.8579   -7.2887    0.0000 C   0  0
    3.5714   -7.6894    0.0000 C   0  0
    3.5871   -6.8587    0.0000 C   0  0
    2.8767   -6.4317    0.0000 C   0  0
    2.1501   -6.8340    0.0000 N   0  0
    2.1384   -7.6680    0.0000 C   0  0
    2.8495   -8.0913    0.0000 C   0  0
    1.4111   -8.0630    0.0000 O   0  0
    0.7018   -7.6378    0.0000 C   0  0
    4.3748   -5.7833    0.0000 C   0  0
    3.7832   -5.1916    0.0000 O   0  0
    7.0750   -5.8667    0.0000 C   0  0
    7.7875   -5.4500    0.0000 C   0  0
    7.7833   -4.6250    0.0000 O   0  0
    8.5000   -5.8625    0.0000 N   0  0
    9.0833   -5.2750    0.0000 C   0  0
    5.6500   -7.0708    0.0000 C   0  0
    8.7125   -6.6583    0.0000 C   0  0
  2  3  1  0
 15 20  1  0
 16 17  1  0
 17 18  1  0
 18 19  1  0
 19 20  1  0
  3  4  2  0
  4  5  1  0
  5  6  2  0
  9 10  2  0
 11 12  2  0
 12 13  1  0
 10 11  1  0
 13 14  2  0
 14  9  1  0
 15 16  1  0
  6  1  1  0
  6  7  1  0
 23 24  1  0
 23 26  1  0
 24 21  1  0
 27 31  1  0
 30 28  1  0
 28 29  1  0
 29 27  2  0
 30 31  2  0
 31 32  1  0
 32 33  2  0
 33 34  1  0
 34 35  2  0
 35 30  1  0
 34 36  1  0
 36 37  1  0
 27 38  1  0
 38 39  2  0
 21 22  1  0
 22 25  1  0
 25 26  1  0
 38 23  1  0
 21 40  1  0
 40 41  1  0
 41 42  2  0
 41 43  1  0
  5  8  1  0
 43 44  1  0
 44 15  1  0
 28  9  1  0
 29 45  1  0
 45  1  1  0
  1  2  2  0
 43 46  1  0
M  END
>  <ID_NEW>
CPDRE1201

>  <pIC50>
6.853871964321761

$$$$

  -MTS-   10172316392D 0   0.00000     0.00000     0

 34 38  0  0  1  0  0  0  0  0999 V2000
   -5.1130   -1.3040    0.0000 C   0  0  0  0  0  0  0  0  0  0  0  0
   -5.8310   -0.8930    0.0000 C   0  0  0  0  0  0  0  0  0  0  0  0
   -5.8310   -0.0620    0.0000 C   0  0  0  0  0  0  0  0  0  0  0  0
   -5.1170    0.3490    0.0000 N   0  0  0  0  0  0  0  0  0  0  0  0
   -3.6240    0.1970    0.0000 C   0  0  0  0  0  0  0  0  0  0  0  0
   -3.1350   -0.4660    0.0000 C   0  0  0  0  0  0  0  0  0  0  0  0
   -3.6140   -1.1370    0.0000 N   0  0  0  0  0  0  0  0  0  0  0  0
   -4.4000   -0.8880    0.0000 C   0  0  0  0  0  0  0  0  0  0  0  0
   -4.4060   -0.0640    0.0000 C   0  0  0  0  0  0  0  0  0  0  0  0
   -3.3530   -1.9190    0.0000 C   0  0  0  0  0  0  0  0  0  0  0  0
   -3.9020   -2.5330    0.0000 C   0  0  0  0  0  0  0  0  0  0  0  0
   -3.6420   -3.3150    0.0000 C   0  0  0  0  0  0  0  0  0  0  0  0
   -2.8330   -3.4810    0.0000 C   0  0  0  0  0  0  0  0  0  0  0  0
   -2.2840   -2.8580    0.0000 C   0  0  0  0  0  0  0  0  0  0  0  0
   -2.5480   -2.0790    0.0000 C   0  0  0  0  0  0  0  0  0  0  0  0
   -3.3760    0.9830    0.0000 C   0  0  0  0  0  0  0  0  0  0  0  0
   -2.5700    1.1610    0.0000 O   0  0  0  0  0  0  0  0  0  0  0  0
   -4.5870    2.9170    0.0000 N   0  0  0  0  0  0  0  0  0  0  0  0
   -3.7610    2.9890    0.0000 C   0  0  1  0  0  0  0  0  0  0  0  0
   -3.4110    3.7300    0.0000 C   0  0  0  0  0  0  0  0  0  0  0  0
   -3.6390    1.5560    0.0000 N   0  0  0  0  0  0  0  0  0  0  0  0
   -3.2940    2.3190    0.0000 C   0  0  0  0  0  0  0  0  0  0  0  0
   -4.9420    2.1660    0.0000 C   0  0  0  0  0  0  0  0  0  0  0  0
   -2.5930    3.7960    0.0000 O   0  0  0  0  0  0  0  0  0  0  0  0
   -4.4760    1.4960    0.0000 C   0  0  0  0  0  0  0  0  0  0  0  0
   -2.3100   -0.4600    0.0000 O   0  0  0  0  0  0  0  0  0  0  0  0
   -1.5170   -0.6710    0.0000 C   0  0  0  0  0  0  0  0  0  0  0  0
   -1.3050   -1.4650    0.0000 C   0  0  0  0  0  0  0  0  0  0  0  0
   -0.5130   -1.6760    0.0000 C   0  0  0  0  0  0  0  0  0  0  0  0
    0.0670   -1.0940    0.0000 C   0  0  0  0  0  0  0  0  0  0  0  0
   -0.1500   -0.2990    0.0000 C   0  0  0  0  0  0  0  0  0  0  0  0
   -0.9420   -0.0910    0.0000 C   0  0  0  0  0  0  0  0  0  0  0  0
   -1.1590    0.7040    0.0000 C   0  0  0  0  0  0  0  0  0  0  0  0
   -1.8890   -2.0480    0.0000 C   0  0  0  0  0  0  0  0  0  0  0  0
  8  1  1  0  0  0  0
  1  2  2  0  0  0  0
  2  3  1  0  0  0  0
  3  4  2  0  0  0  0
  4  9  1  0  0  0  0
  8  9  2  0  0  0  0
  6  7  1  0  0  0  0
  5  6  2  0  0  0  0
  7  8  1  0  0  0  0
  9  5  1  0  0  0  0
  7 10  1  0  0  0  0
 10 11  2  0  0  0  0
 11 12  1  0  0  0  0
 12 13  2  0  0  0  0
 13 14  1  0  0  0  0
 14 15  2  0  0  0  0
 15 10  1  0  0  0  0
  5 16  1  0  0  0  0
 16 17  2  0  0  0  0
 16 21  1  0  0  0  0
 19 18  1  0  0  0  0
 19 20  1  1  0  0  0
 21 25  1  0  0  0  0
 22 19  1  0  0  0  0
 23 18  1  0  0  0  0
 24 20  1  0  0  0  0
 25 23  1  0  0  0  0
 21 22  1  0  0  0  0
  6 26  1  0  0  0  0
 26 27  1  0  0  0  0
 27 28  2  0  0  0  0
 28 29  1  0  0  0  0
 29 30  2  0  0  0  0
 30 31  1  0  0  0  0
 31 32  2  0  0  0  0
 32 27  1  0  0  0  0
 32 33  1  0  0  0  0
 28 34  1  0  0  0  0
M  END
>  <ID_NEW>
CPDRE1202

>  <pIC50>
6.844663962534938

$$$$

  SciTegic12180814002D

 42 46  0  0  0  0            999 V2000
   -1.4720    0.3376    0.0000 C   0  0
   -1.0854   -0.3811    0.0000 C   0  0
   -1.0642    1.0445    0.0000 C   0  0
   -2.3084    0.3500    0.0000 O   0  0
   -0.2497   -0.3935    0.0000 C   0  0
   -1.4933   -1.0984    0.0000 C   0  0
   -0.2285    1.0322    0.0000 C   0  0
   -1.4507    1.7736    0.0000 C   0  0
    0.1723    0.3091    0.0000 C   0  0
   -2.6292    2.4458    0.0000 N   0  0
   -1.8292    2.2333    0.0000 C   0  0
   -1.2504    2.8131    0.0000 C   0  0
   -2.2620    3.8293    0.0000 C   0  0
   -2.8504    3.2423    0.0000 C   0  0
   -5.8281    0.9690    0.0000 C   0  0
   -5.8293    0.1374    0.0000 C   0  0
   -5.1104   -0.2754    0.0000 C   0  0
   -5.1122    1.3859    0.0000 N   0  0
   -3.5971    1.2313    0.0000 C   0  0
   -4.3926    0.9726    0.0000 C   0  0
   -4.3900    0.1353    0.0000 C   0  0
   -3.5920   -0.1184    0.0000 N   0  0
   -3.1067    0.5631    0.0000 C   0  0
   -3.1714   -0.8417    0.0000 C   0  0
   -2.3500   -0.8270    0.0000 C   0  0
   -3.5848   -1.5510    0.0000 C   0  0
   -1.9265   -1.5478    0.0000 C   0  0
   -3.1656   -2.2719    0.0000 C   0  0
   -2.3341   -2.2745    0.0000 C   0  0
   -3.3448    2.0208    0.0000 C   0  0
   -3.9031    2.6363    0.0000 O   0  0
   -1.4708    3.6209    0.0000 N   0  0
   -0.5417    2.4042    0.0000 C   0  0
    0.1727    2.8168    0.0000 C   0  0
    0.8873    2.4045    0.0000 N   0  0
    0.1725    3.6418    0.0000 O   0  0
    1.6792    2.6250    0.0000 C   0  0
    2.3917    2.2125    0.0000 C   0  0
    2.3875    1.3875    0.0000 O   0  0
    3.1042    2.6292    0.0000 N   0  0
    3.8209    2.2206    0.0000 C   0  0
    3.0996    3.4542    0.0000 C   0  0
 24 22  1  0
 25 27  1  0
 26 28  2  0
 27 29  2  0
 28 29  1  0
 18 15  2  0
 20 21  2  0
 16 17  2  0
 17 21  1  0
 15 16  1  0
 20 18  1  0
 19 20  1  0
 19 30  1  0
 23  4  1  0
 30 31  2  0
 30 10  1  0
 10 11  1  0
 12 32  1  0
 13 32  1  0
 10 14  1  0
 11 12  1  0
 12 33  1  0
 33 34  1  0
 34 35  1  0
 34 36  2  0
  1  2  2  0
  1  3  1  0
  1  4  1  0
  2  5  1  0
  2  6  1  0
  3  7  2  0
  3  8  1  0
  7  9  1  0
  5  9  2  0
 13 14  1  0
 21 22  1  0
 22 23  1  0
 23 19  2  0
 35 37  1  0
 37 38  1  0
 38 39  2  0
 38 40  1  0
 24 25  2  0
 40 41  1  0
 24 26  1  0
 40 42  1  0
M  END
>  <ID_NEW>
CPDRE1203

>  <pIC50>
6.838631997765024

$$$$

  SciTegic12180813532D

 34 38  0  0  0  0            999 V2000
    3.6792   -1.3792    0.0000 N   0  0
    4.2625   -0.7917    0.0000 C   0  0
    4.0466    0.0029    0.0000 C   0  0
    3.2473    0.2163    0.0000 N   0  0
    2.6640   -0.3712    0.0000 C   0  0
    2.8799   -1.1721    0.0000 C   0  0
    4.7711   -4.4799    0.0000 C   0  0
    4.3544   -5.1903    0.0000 C   0  0
    4.7611   -5.9043    0.0000 C   0  0
    5.5845   -5.9091    0.0000 C   0  0
    5.9994   -5.1940    0.0000 C   0  0
    5.5902   -4.4829    0.0000 C   0  0
    2.8958   -4.8583    0.0000 C   0  0
    2.1792   -5.2667    0.0000 C   0  0
    2.1745   -6.0869    0.0000 C   0  0
    2.8848   -6.5051    0.0000 C   0  0
    3.6014   -6.0967    0.0000 C   0  0
    3.6078   -5.2703    0.0000 C   0  0
    2.2276   -3.5536    0.0000 C   0  0
    2.4407   -2.7557    0.0000 C   0  0
    1.8569   -2.1741    0.0000 C   0  0
    1.0597   -2.3893    0.0000 N   0  0
    0.8496   -3.1914    0.0000 C   0  0
    1.4350   -3.7695    0.0000 C   0  0
    2.9000   -4.0375    0.0000 N   0  0
    3.5693   -3.5550    0.0000 C   0  0
    3.3125   -2.7667    0.0000 C   0  0
    0.0458   -3.4000    0.0000 O   0  0
   -0.5417   -2.8125    0.0000 C   0  0
    4.3625   -3.7667    0.0000 C   0  0
    5.9958   -3.7625    0.0000 C   0  0
    6.8208   -5.1917    0.0000 F   0  0
    3.8958   -2.1792    0.0000 C   0  0
    4.6917   -2.3917    0.0000 O   0  0
  8  9  1  0
 19 20  2  0
 20 21  1  0
  9 10  2  0
 21 22  2  0
  1  6  1  0
 22 23  1  0
 10 11  1  0
 23 24  2  0
 24 19  1  0
  2  3  1  0
 11 12  2  0
 26 27  2  0
 12  7  1  0
 25 26  1  0
 27 20  1  0
 19 25  1  0
 25 13  1  0
 13 14  1  0
 23 28  1  0
  3  4  1  0
 28 29  1  0
  4  5  1  0
 26 30  1  0
 30  7  1  0
  5  6  1  0
 12 31  1  0
 11 32  1  0
  1  2  1  0
 27 33  1  0
  7  8  2  0
 33 34  2  0
 33  1  1  0
 13 18  1  0
 14 15  1  0
 15 16  1  0
 16 17  1  0
 17 18  1  0
M  END
>  <ID_NEW>
CPDRE1204

>  <pIC50>
6.823908740944318

$$$$

  -MTS-   10172316392D 0   0.00000     0.00000     0

 39 44  0  0  1  0  0  0  0  0999 V2000
    5.2730   -4.0830    0.0000 C   0  0  0  0  0  0  0  0  0  0  0  0
    5.2680   -4.9060    0.0000 C   0  0  0  0  0  0  0  0  0  0  0  0
    5.9770   -5.3210    0.0000 C   0  0  0  0  0  0  0  0  0  0  0  0
    6.6920   -4.9130    0.0000 C   0  0  0  0  0  0  0  0  0  0  0  0
    6.6940   -4.0870    0.0000 C   0  0  0  0  0  0  0  0  0  0  0  0
    5.9840   -3.6760    0.0000 C   0  0  0  0  0  0  0  0  0  0  0  0
    4.2370   -2.0120    0.0000 N   0  0  0  0  0  0  0  0  0  0  0  0
    5.0330   -2.2250    0.0000 C   0  0  1  0  0  0  0  0  0  0  0  0
    5.6120   -1.6450    0.0000 C   0  0  0  0  0  0  0  0  0  0  0  0
    4.6050   -0.6370    0.0000 C   0  0  0  0  0  0  0  0  0  0  0  0
    4.0200   -1.2200    0.0000 C   0  0  0  0  0  0  0  0  0  0  0  0
    1.0550   -3.4810    0.0000 C   0  0  0  0  0  0  0  0  0  0  0  0
    1.0540   -4.3080    0.0000 C   0  0  0  0  0  0  0  0  0  0  0  0
    1.7690   -4.7210    0.0000 C   0  0  0  0  0  0  0  0  0  0  0  0
    1.7670   -3.0680    0.0000 N   0  0  0  0  0  0  0  0  0  0  0  0
    3.2740   -3.2190    0.0000 C   0  0  0  0  0  0  0  0  0  0  0  0
    2.4820   -3.4770    0.0000 C   0  0  0  0  0  0  0  0  0  0  0  0
    2.4850   -4.3100    0.0000 C   0  0  0  0  0  0  0  0  0  0  0  0
    3.2790   -4.5640    0.0000 N   0  0  0  0  0  0  0  0  0  0  0  0
    3.7640   -3.8870    0.0000 C   0  0  0  0  0  0  0  0  0  0  0  0
    3.5260   -2.4330    0.0000 C   0  0  0  0  0  0  0  0  0  0  0  0
    2.9720   -1.8220    0.0000 O   0  0  0  0  0  0  0  0  0  0  0  0
    5.3920   -0.8420    0.0000 N   0  0  0  0  0  0  0  0  0  0  0  0
    6.4250   -1.4330    0.0000 C   0  0  0  0  0  0  0  0  0  0  0  0
    6.4210   -2.2560    0.0000 C   0  0  0  0  0  0  0  0  0  0  0  0
    7.1310   -2.6670    0.0000 C   0  0  0  0  0  0  0  0  0  0  0  0
    7.8440   -2.2570    0.0000 C   0  0  0  0  0  0  0  0  0  0  0  0
    7.8420   -1.4320    0.0000 C   0  0  0  0  0  0  0  0  0  0  0  0
    7.1320   -1.0240    0.0000 C   0  0  0  0  0  0  0  0  0  0  0  0
    5.7420   -2.6370    0.0000 C   0  0  0  0  0  0  0  0  0  0  0  0
    4.5580   -3.6670    0.0000 O   0  0  0  0  0  0  0  0  0  0  0  0
    5.9860   -2.8510    0.0000 C   0  0  0  0  0  0  0  0  0  0  0  0
    4.5510   -5.3150    0.0000 C   0  0  0  0  0  0  0  0  0  0  0  0
    3.2710   -5.3870    0.0000 C   0  0  0  0  0  0  0  0  0  0  0  0
    2.5520   -5.7900    0.0000 C   0  0  0  0  0  0  0  0  0  0  0  0
    2.5430   -6.6130    0.0000 C   0  0  0  0  0  0  0  0  0  0  0  0
    3.2530   -7.0320    0.0000 C   0  0  0  0  0  0  0  0  0  0  0  0
    3.9720   -6.6230    0.0000 C   0  0  0  0  0  0  0  0  0  0  0  0
    3.9770   -5.8020    0.0000 C   0  0  0  0  0  0  0  0  0  0  0  0
 21 22  2  0  0  0  0
 21  7  1  0  0  0  0
  7  8  1  0  0  0  0
  9 23  1  0  0  0  0
 10 23  1  0  0  0  0
  7 11  1  0  0  0  0
  8  9  1  0  0  0  0
 10 11  1  0  0  0  0
 18 19  1  0  0  0  0
 19 20  1  0  0  0  0
 20 16  2  0  0  0  0
 15 12  2  0  0  0  0
 24 25  2  0  0  0  0
 17 18  2  0  0  0  0
 25 26  1  0  0  0  0
 13 14  2  0  0  0  0
 26 27  2  0  0  0  0
 14 18  1  0  0  0  0
 27 28  1  0  0  0  0
 12 13  1  0  0  0  0
 28 29  2  0  0  0  0
 29 24  1  0  0  0  0
  8 30  1  1  0  0  0
 30 25  1  0  0  0  0
  4  5  1  0  0  0  0
 20 31  1  0  0  0  0
 31  1  1  0  0  0  0
  2  3  1  0  0  0  0
  6 32  1  0  0  0  0
  5  6  2  0  0  0  0
  2 33  1  0  0  0  0
  6  1  1  0  0  0  0
 19 34  1  0  0  0  0
  1  2  2  0  0  0  0
 34 35  2  0  0  0  0
  3  4  2  0  0  0  0
 35 36  1  0  0  0  0
 17 15  1  0  0  0  0
 36 37  2  0  0  0  0
 16 17  1  0  0  0  0
 37 38  1  0  0  0  0
 16 21  1  0  0  0  0
 38 39  2  0  0  0  0
 39 34  1  0  0  0  0
M  END
>  <ID_NEW>
CPDRE1205

>  <pIC50>
6.8181564120552265

$$$$

  -MTS-   10172316392D 0   0.00000     0.00000     0

 33 37  0  0  1  0  0  0  0  0999 V2000
   -0.1920   -0.0960    0.0000 C   0  0  0  0  0  0  0  0  0  0  0  0
   -0.1920   -0.9210    0.0000 C   0  0  0  0  0  0  0  0  0  0  0  0
    0.5200   -1.3290    0.0000 C   0  0  0  0  0  0  0  0  0  0  0  0
    0.5200    0.3210    0.0000 C   0  0  0  0  0  0  0  0  0  0  0  0
    1.2320   -0.0960    0.0000 N   0  0  0  0  0  0  0  0  0  0  0  0
    1.2320   -0.9170    0.0000 C   0  0  0  0  0  0  0  0  0  0  0  0
    2.0140   -1.1710    0.0000 C   0  0  0  0  0  0  0  0  0  0  0  0
    2.4960   -0.5070    0.0000 C   0  0  0  0  0  0  0  0  0  0  0  0
    2.0140    0.1580    0.0000 C   0  0  0  0  0  0  0  0  0  0  0  0
    2.2690    0.9420    0.0000 C   0  0  0  0  0  0  0  0  0  0  0  0
    3.0760    1.1140    0.0000 N   0  0  0  0  0  0  0  0  0  0  0  0
    1.7170    1.5560    0.0000 O   0  0  0  0  0  0  0  0  0  0  0  0
    3.6270    0.4970    0.0000 C   0  0  0  0  0  0  0  0  0  0  0  0
    4.4310    0.6660    0.0000 C   0  0  0  0  0  0  0  0  0  0  0  0
    4.6900    1.4500    0.0000 N   0  0  0  0  0  0  0  0  0  0  0  0
    4.1390    2.0650    0.0000 C   0  0  1  0  0  0  0  0  0  0  0  0
    3.3290    1.8960    0.0000 C   0  0  0  0  0  0  0  0  0  0  0  0
    4.3970    2.8490    0.0000 C   0  0  0  0  0  0  0  0  0  0  0  0
    3.3210   -0.5070    0.0000 C   0  0  0  0  0  0  0  0  0  0  0  0
    3.7340   -1.2210    0.0000 C   0  0  0  0  0  0  0  0  0  0  0  0
    3.3180   -1.9340    0.0000 C   0  0  0  0  0  0  0  0  0  0  0  0
    3.7300   -2.6480    0.0000 C   0  0  0  0  0  0  0  0  0  0  0  0
    4.5560   -2.6490    0.0000 C   0  0  0  0  0  0  0  0  0  0  0  0
    4.9680   -1.9290    0.0000 C   0  0  0  0  0  0  0  0  0  0  0  0
    4.5540   -1.2180    0.0000 C   0  0  0  0  0  0  0  0  0  0  0  0
    4.9640   -0.5020    0.0000 C   0  0  0  0  0  0  0  0  0  0  0  0
    5.7930   -1.9270    0.0000 F   0  0  0  0  0  0  0  0  0  0  0  0
    2.2680   -1.9560    0.0000 C   0  0  0  0  0  0  0  0  0  0  0  0
    1.7130   -2.5650    0.0000 C   0  0  0  0  0  0  0  0  0  0  0  0
    1.9680   -3.3490    0.0000 C   0  0  0  0  0  0  0  0  0  0  0  0
    2.7750   -3.5220    0.0000 C   0  0  0  0  0  0  0  0  0  0  0  0
    3.3280   -2.9040    0.0000 C   0  0  0  0  0  0  0  0  0  0  0  0
    3.0710   -2.1220    0.0000 C   0  0  0  0  0  0  0  0  0  0  0  0
 13 14  1  0  0  0  0
 14 15  1  0  0  0  0
 15 16  1  0  0  0  0
 16 17  1  0  0  0  0
  7  8  1  0  0  0  0
 16 18  1  1  0  0  0
  8  9  2  0  0  0  0
  8 19  1  0  0  0  0
  9  5  1  0  0  0  0
 19 20  1  0  0  0  0
  5  4  1  0  0  0  0
 20 21  2  0  0  0  0
  9 10  1  0  0  0  0
 21 22  1  0  0  0  0
  5  6  1  0  0  0  0
 22 23  2  0  0  0  0
 10 11  1  0  0  0  0
 23 24  1  0  0  0  0
 24 25  2  0  0  0  0
 25 20  1  0  0  0  0
 10 12  2  0  0  0  0
 25 26  1  0  0  0  0
 11 13  1  0  0  0  0
 24 27  1  0  0  0  0
  1  2  1  0  0  0  0
  7 28  1  0  0  0  0
  1  4  2  0  0  0  0
 28 29  2  0  0  0  0
  2  3  2  0  0  0  0
 29 30  1  0  0  0  0
  3  6  1  0  0  0  0
 30 31  2  0  0  0  0
  6  7  2  0  0  0  0
 31 32  1  0  0  0  0
 11 17  1  0  0  0  0
 32 33  2  0  0  0  0
 33 28  1  0  0  0  0
M  END
>  <ID_NEW>
CPDRE1206

>  <pIC50>
6.790484985457368

$$$$

  SciTegic12180813452D

 32 36  0  0  0  0            999 V2000
    5.0000   -2.1958    0.0000 N   0  0
    5.5833   -1.6083    0.0000 C   0  0
    5.3674   -0.8138    0.0000 C   0  0
    4.5681   -0.6003    0.0000 N   0  0
    3.9848   -1.1878    0.0000 C   0  0
    4.2007   -1.9888    0.0000 C   0  0
    6.0086   -5.4966    0.0000 C   0  0
    5.5919   -6.2070    0.0000 C   0  0
    5.9986   -6.9209    0.0000 C   0  0
    6.8220   -6.9258    0.0000 C   0  0
    7.2369   -6.2107    0.0000 C   0  0
    6.8277   -5.4996    0.0000 C   0  0
    4.2144   -5.6752    0.0000 C   0  0
    3.4988   -6.0817    0.0000 C   0  0
    3.4939   -6.9028    0.0000 C   0  0
    4.2040   -7.3185    0.0000 C   0  0
    4.9204   -6.9070    0.0000 C   0  0
    4.9218   -6.0872    0.0000 C   0  0
    3.5484   -4.3703    0.0000 C   0  0
    3.7616   -3.5723    0.0000 C   0  0
    3.1777   -2.9908    0.0000 C   0  0
    2.3805   -3.2060    0.0000 C   0  0
    2.1705   -4.0080    0.0000 C   0  0
    2.7558   -4.5861    0.0000 N   0  0
    4.2208   -4.8541    0.0000 N   0  0
    4.8901   -4.3717    0.0000 C   0  0
    4.6333   -3.5834    0.0000 C   0  0
    5.2167   -2.9958    0.0000 C   0  0
    5.9292   -3.4083    0.0000 O   0  0
    5.6000   -4.7833    0.0000 O   0  0
    7.2333   -4.7792    0.0000 C   0  0
    8.0583   -6.2083    0.0000 F   0  0
 12  7  1  0
  5  6  1  0
 26 27  2  0
 25 26  1  0
 27 20  1  0
 19 25  1  0
 13 14  2  0
 27 28  1  0
  1  2  1  0
 28 29  2  0
 28  1  1  0
 14 15  1  0
 26 30  1  0
 30  7  1  0
 25 13  1  0
  7  8  2  0
 15 16  2  0
 12 31  1  0
  1  6  1  0
 11 32  1  0
 16 17  1  0
  8  9  1  0
 17 18  2  0
 18 13  1  0
  2  3  1  0
  9 10  2  0
 19 20  2  0
  3  4  1  0
 20 21  1  0
 10 11  1  0
 21 22  2  0
  4  5  1  0
 22 23  1  0
 11 12  2  0
 23 24  2  0
 24 19  1  0
M  END
>  <ID_NEW>
CPDRE1207

>  <pIC50>
6.782516055786093

$$$$

  SciTegic12180813462D

 33 37  0  0  0  0            999 V2000
   -3.0380   -0.2804    0.0000 C   0  0
   -3.0348   -1.1804    0.0000 C   0  0
   -2.2549   -1.6275    0.0000 C   0  0
   -2.2614    0.1683    0.0000 C   0  0
   -1.4817   -0.2789    0.0000 C   0  0
   -1.4825   -1.1747    0.0000 C   0  0
   -0.6258   -1.4518    0.0000 N   0  0
   -0.0968   -0.7239    0.0000 C   0  0
   -0.6269    0.0002    0.0000 C   0  0
   -0.3466   -2.3065    0.0000 C   0  0
   -0.3540    0.8570    0.0000 C   0  0
    0.5251    1.0429    0.0000 O   0  0
   -0.9437   -2.9734    0.0000 C   0  0
   -0.6646   -3.8282    0.0000 C   0  0
    0.2116   -4.0118    0.0000 C   0  0
    0.8129   -3.3449    0.0000 C   0  0
    0.5338   -2.4901    0.0000 C   0  0
   -0.9559    1.5237    0.0000 N   0  0
   -0.6789    2.3763    0.0000 C   0  0
   -1.2808    3.0430    0.0000 C   0  0
   -2.1599    2.8529    0.0000 N   0  0
   -2.4370    2.0003    0.0000 C   0  0
   -1.8350    1.3337    0.0000 C   0  0
    1.3594   -0.1882    0.0000 C   0  0
    2.2455   -0.3413    0.0000 C   0  0
    1.0516    0.6535    0.0000 C   0  0
    0.7852   -0.8769    0.0000 O   0  0
    2.8238    0.3474    0.0000 C   0  0
    2.5575   -1.1872    0.0000 C   0  0
    1.6257    1.3421    0.0000 C   0  0
    2.5119    1.1891    0.0000 C   0  0
   -2.2505   -2.5265    0.0000 F   0  0
    1.3153    2.1861    0.0000 F   0  0
 22 23  1  0
  1  2  2  0
  2  3  1  0
  3  6  2  0
  5  4  2  0
  4  1  1  0
  5  6  1  0
  6  7  1  0
 24 25  2  0
 24 26  1  0
 24 27  1  0
 25 28  1  0
 25 29  1  0
 26 30  2  0
 28 31  2  0
  3 32  1  0
 30 33  1  0
 30 31  1  0
  8 27  1  0
  7  8  1  0
  8  9  2  0
  9  5  1  0
  7 10  1  0
  9 11  1  0
 11 12  2  0
 10 13  2  0
 13 14  1  0
 14 15  2  0
 15 16  1  0
 16 17  2  0
 17 10  1  0
 11 18  1  0
 18 19  1  0
 18 23  1  0
 19 20  1  0
 20 21  1  0
 21 22  1  0
M  END
>  <ID_NEW>
CPDRE1208

>  <pIC50>
6.779891911959944

$$$$

  SciTegic12180813072D

 31 35  0  0  0  0            999 V2000
   -5.7047    0.6397    0.0000 C   0  0
   -5.7036   -0.1852    0.0000 C   0  0
   -4.9812   -0.5859    0.0000 C   0  0
   -4.9917    1.0599    0.0000 C   0  0
   -4.2776    0.6550    0.0000 C   0  0
   -4.2639   -0.1700    0.0000 C   0  0
   -3.4832   -0.4205    0.0000 N   0  0
   -3.0000    0.2510    0.0000 C   0  0
   -3.4927    0.9147    0.0000 C   0  0
   -3.2151   -1.2011    0.0000 C   0  0
   -3.7669   -1.8208    0.0000 C   0  0
   -3.5030   -2.6056    0.0000 C   0  0
   -2.6956   -2.7667    0.0000 C   0  0
   -2.1477   -2.1512    0.0000 C   0  0
   -2.4118   -1.3664    0.0000 C   0  0
   -3.2422    1.7039    0.0000 C   0  0
   -2.4403    1.8789    0.0000 O   0  0
   -3.8060    2.3136    0.0000 N   0  0
   -3.5554    3.0985    0.0000 C   0  0
   -4.1150    3.7082    0.0000 C   0  0
   -4.9209    3.5288    0.0000 N   0  0
   -5.1674    2.7439    0.0000 C   0  0
   -4.6078    2.1301    0.0000 C   0  0
   -0.8499    0.6187    0.0000 C   0  0
   -0.3212    1.2558    0.0000 C   0  0
   -1.6586    0.7534    0.0000 C   0  0
   -0.6095    2.0272    0.0000 C   0  0
   -1.9469    1.5290    0.0000 C   0  0
   -2.1872    0.1206    0.0000 O   0  0
   -1.4265    2.1618    0.0000 C   0  0
   -0.6375   -0.1750    0.0000 Cl  0  0
  5  6  1  0
 24 25  1  0
 24 26  2  0
 25 27  2  0
 26 28  1  0
 26 29  1  0
 27 30  1  0
 28 30  2  0
  8 29  1  0
  6  7  1  0
  7  8  1  0
  8  9  2  0
  9  5  1  0
  7 10  1  0
 24 31  1  0
 10 11  2  0
 11 12  1  0
 12 13  2  0
 13 14  1  0
 14 15  2  0
 15 10  1  0
  9 16  1  0
 16 17  2  0
 16 18  1  0
 18 19  1  0
 18 23  1  0
 19 20  1  0
 20 21  1  0
 21 22  1  0
 22 23  1  0
  1  2  2  0
  2  3  1  0
  3  6  2  0
  5  4  2  0
  4  1  1  0
M  END
>  <ID_NEW>
CPDRE1209

>  <pIC50>
6.774690718274137

$$$$

  SciTegic12180813482D

 35 39  0  0  0  0            999 V2000
   -4.1355   -1.4824    0.0000 C   0  0
   -4.9164   -1.9380    0.0000 C   0  0
   -4.9093   -2.8379    0.0000 C   0  0
   -4.1214   -3.2865    0.0000 C   0  0
   -3.3518   -1.9268    0.0000 C   0  0
   -3.3446   -2.8267    0.0000 C   0  0
   -2.4855   -3.1005    0.0000 N   0  0
   -1.9587   -2.3679    0.0000 C   0  0
   -2.4995   -1.6401    0.0000 C   0  0
   -2.2029   -3.9568    0.0000 C   0  0
   -2.7982   -4.6333    0.0000 C   0  0
   -2.5157   -5.4896    0.0000 C   0  0
   -1.6295   -5.6697    0.0000 C   0  0
   -1.0301   -4.9933    0.0000 C   0  0
   -1.3168   -4.1369    0.0000 C   0  0
   -2.2259   -0.7810    0.0000 C   0  0
   -1.3443   -0.5872    0.0000 O   0  0
   -2.8337   -0.1154    0.0000 N   0  0
   -2.5601    0.7479    0.0000 C   0  0
   -3.1679    1.4134    0.0000 C   0  0
   -4.0494    1.2197    0.0000 N   0  0
   -4.3231    0.3564    0.0000 C   0  0
   -3.7152   -0.3091    0.0000 C   0  0
   -1.3470   -6.5261    0.0000 F   0  0
   -5.6860   -3.2976    0.0000 O   0  0
   -5.6790   -4.1976    0.0000 C   0  0
   -0.4991   -1.8193    0.0000 C   0  0
    0.3925   -1.9729    0.0000 C   0  0
   -0.8102   -0.9761    0.0000 C   0  0
   -1.0713   -2.5173    0.0000 O   0  0
    0.9648   -1.2749    0.0000 C   0  0
    0.7078   -2.8160    0.0000 C   0  0
   -0.2379   -0.2824    0.0000 C   0  0
    0.6537   -0.4318    0.0000 C   0  0
    1.8550   -1.4246    0.0000 F   0  0
 27 29  1  0
 27 30  1  0
 28 31  1  0
 28 32  1  0
 29 33  2  0
 31 34  2  0
 33 34  1  0
  8 30  1  0
 12 13  2  0
 13 14  1  0
 14 15  2  0
 15 10  1  0
  5  1  1  0
  1  2  2  0
  2  3  1  0
  3  4  2  0
  4  6  1  0
  5  6  2  0
 31 35  1  0
  9 16  1  0
 16 17  2  0
 16 18  1  0
 18 19  1  0
 18 23  1  0
 19 20  1  0
 20 21  1  0
 21 22  1  0
 22 23  1  0
 13 24  1  0
  3 25  1  0
 25 26  1  0
  6  7  1  0
  7  8  1  0
  8  9  2  0
  9  5  1  0
  7 10  1  0
 10 11  2  0
 11 12  1  0
 27 28  2  0
M  END
>  <ID_NEW>
CPDRE1210

>  <pIC50>
6.774690718274137

$$$$

  SciTegic12180813522D

 33 37  0  0  0  0            999 V2000
   -5.8306    1.6624    0.0000 C   0  0
   -5.8318    0.8351    0.0000 C   0  0
   -5.1169    0.4222    0.0000 C   0  0
   -5.1187    2.0752    0.0000 C   0  0
   -3.6134    0.5797    0.0000 N   0  0
   -3.1257    1.2515    0.0000 C   0  0
   -3.6139    1.9229    0.0000 C   0  0
   -4.4034    1.6661    0.0000 C   0  0
   -4.4031    0.8359    0.0000 C   0  0
   -3.3582   -0.2048    0.0000 C   0  0
   -3.9125   -0.8166    0.0000 C   0  0
   -3.6579   -1.6005    0.0000 C   0  0
   -2.8501   -1.7723    0.0000 C   0  0
   -2.2974   -1.1541    0.0000 C   0  0
   -2.5550   -0.3726    0.0000 C   0  0
   -3.3593    2.7076    0.0000 C   0  0
   -3.9115    3.3205    0.0000 O   0  0
   -2.5524    2.8794    0.0000 N   0  0
   -2.0021    2.2629    0.0000 C   0  0
   -1.1983    2.4321    0.0000 C   0  0
   -0.9395    3.2158    0.0000 N   0  0
   -1.4910    3.8307    0.0000 C   0  0
   -2.3012    3.6619    0.0000 C   0  0
   -2.5938   -2.5565    0.0000 C   0  0
   -2.3007    1.2519    0.0000 O   0  0
   -1.8879    0.5375    0.0000 C   0  0
   -2.3007   -0.1733    0.0000 C   0  0
   -1.8886   -0.8871    0.0000 C   0  0
   -1.0627   -0.8873    0.0000 C   0  0
   -0.6507   -0.1676    0.0000 C   0  0
   -1.0651    0.5433    0.0000 C   0  0
   -3.0208    0.2416    0.0000 C   0  0
    0.1743   -0.1644    0.0000 F   0  0
  5  6  1  0
  7  8  1  0
  9  5  1  0
  5 10  1  0
 10 11  2  0
 11 12  1  0
 12 13  2  0
 13 14  1  0
 14 15  2  0
 15 10  1  0
  7 16  1  0
 16 17  2  0
 16 18  1  0
 18 19  1  0
 18 23  1  0
 19 20  1  0
 20 21  1  0
 21 22  1  0
 22 23  1  0
  1  2  2  0
  2  3  1  0
  3  9  2  0
  8  4  2  0
  4  1  1  0
  8  9  1  0
  6  7  2  0
 13 24  1  0
  6 25  1  0
 25 26  1  0
 26 27  2  0
 27 28  1  0
 28 29  2  0
 29 30  1  0
 30 31  2  0
 31 26  1  0
 27 32  1  0
 30 33  1  0
M  END
>  <ID_NEW>
CPDRE1211

>  <pIC50>
6.769551078621726

$$$$

  SciTegic12180813082D

 36 40  0  0  0  0            999 V2000
    2.6501   -2.1292    0.0000 N   0  0
    2.6459   -1.3042    0.0000 C   0  0
    1.9333   -0.8975    0.0000 C   0  0
    1.2203   -1.3114    0.0000 N   0  0
    1.2245   -2.1364    0.0000 C   0  0
    1.9416   -2.5475    0.0000 C   0  0
    0.7528   -3.7792    0.0000 C   0  0
    0.7516   -4.6148    0.0000 C   0  0
    1.4748   -5.0319    0.0000 C   0  0
    1.4730   -3.3622    0.0000 C   0  0
    2.1925   -3.7755    0.0000 C   0  0
    2.2015   -4.6103    0.0000 C   0  0
    2.9932   -4.8611    0.0000 N   0  0
    3.4834   -4.1855    0.0000 C   0  0
    2.9853   -3.5114    0.0000 C   0  0
    3.2569   -5.6526    0.0000 C   0  0
    2.7011   -6.2725    0.0000 C   0  0
    2.9601   -7.0633    0.0000 C   0  0
    3.7771   -7.2308    0.0000 C   0  0
    4.3348   -6.6054    0.0000 C   0  0
    4.0688   -5.8169    0.0000 C   0  0
    3.2399   -2.7170    0.0000 C   0  0
    4.0541   -2.5408    0.0000 O   0  0
    4.7875   -5.3959    0.0000 O   0  0
    5.2958   -5.7750    0.0000 C   0  0
    6.0166   -5.3501    0.0000 C   0  0
    6.7375   -5.7668    0.0000 C   0  0
    7.4541   -5.3459    0.0000 O   0  0
    8.1750   -5.7626    0.0000 C   0  0
    4.3084   -4.1833    0.0000 O   0  0
    5.1334   -4.1833    0.0000 C   0  0
    5.5440   -4.9001    0.0000 C   0  0
    6.3682   -4.9005    0.0000 C   0  0
    6.7816   -4.1855    0.0000 C   0  0
    6.3646   -3.4686    0.0000 C   0  0
    5.5418   -3.4718    0.0000 C   0  0
 28 29  1  0
 24 25  1  0
 11 10  2  0
 10  7  1  0
 11 12  1  0
 12 13  1  0
 13 14  1  0
 14 15  2  0
 15 11  1  0
 13 16  1  0
 16 17  2  0
 22  1  1  0
  2  3  1  0
  3  4  1  0
  4  5  1  0
  5  6  1  0
  1  2  1  0
  1  6  1  0
 17 18  1  0
 18 19  2  0
 19 20  1  0
 20 21  2  0
 21 16  1  0
 15 22  1  0
 22 23  2  0
  7  8  2  0
 14 30  1  0
  8  9  1  0
 30 31  1  0
  9 12  2  0
 31 32  2  0
 21 24  1  0
 32 33  1  0
 25 26  1  0
 33 34  2  0
 26 27  1  0
 34 35  1  0
 27 28  1  0
 35 36  2  0
 36 31  1  0
M  END
>  <ID_NEW>
CPDRE1212

>  <pIC50>
6.756961951313706

$$$$

  SciTegic12180813452D

 32 36  0  0  0  0            999 V2000
   -5.7056    1.5292    0.0000 C   0  0
   -5.7068    0.7018    0.0000 C   0  0
   -4.9919    0.2889    0.0000 C   0  0
   -4.9937    1.9419    0.0000 C   0  0
   -4.2824    1.5291    0.0000 C   0  0
   -4.2776    0.7060    0.0000 C   0  0
   -3.4932    0.4561    0.0000 N   0  0
   -3.0132    1.1249    0.0000 C   0  0
   -3.5010    1.7880    0.0000 C   0  0
   -3.2507    2.5741    0.0000 C   0  0
   -2.4447    2.7504    0.0000 N   0  0
   -3.8063    3.1840    0.0000 O   0  0
   -1.8905    2.1373    0.0000 C   0  0
   -1.0877    2.3109    0.0000 C   0  0
   -0.8332    3.0960    0.0000 N   0  0
   -1.3880    3.7079    0.0000 C   0  0
   -2.1973    3.5347    0.0000 C   0  0
   -3.5000   -0.3667    0.0000 C   0  0
   -4.2183   -0.7703    0.0000 C   0  0
   -4.2254   -1.5924    0.0000 C   0  0
   -3.5157   -2.0105    0.0000 C   0  0
   -2.7973   -1.6006    0.0000 C   0  0
   -2.7937   -0.7799    0.0000 C   0  0
   -2.2208    0.9125    0.0000 O   0  0
   -1.5083    0.5041    0.0000 C   0  0
   -1.5085   -0.3181    0.0000 C   0  0
   -0.7969   -0.7264    0.0000 C   0  0
   -0.0860   -0.3135    0.0000 C   0  0
   -0.0912    0.5119    0.0000 C   0  0
   -0.8034    0.9165    0.0000 C   0  0
   -0.8087    1.7414    0.0000 F   0  0
   -0.7947   -1.5514    0.0000 F   0  0
 13 14  1  0
 14 15  1  0
 15 16  1  0
 16 17  1  0
  7 18  1  0
 18 19  2  0
 19 20  1  0
 20 21  2  0
 21 22  1  0
 22 23  2  0
 23 18  1  0
  8 24  1  0
 24 25  1  0
 25 26  2  0
 26 27  1  0
 27 28  2  0
 28 29  1  0
 29 30  2  0
 30 25  1  0
 30 31  1  0
 27 32  1  0
  1  2  2  0
  2  3  1  0
  3  6  2  0
  5  4  2  0
  4  1  1  0
  5  6  1  0
  6  7  1  0
  7  8  1  0
  8  9  2  0
  9  5  1  0
  9 10  1  0
 10 11  1  0
 10 12  2  0
 11 13  1  0
 11 17  1  0
M  END
>  <ID_NEW>
CPDRE1213

>  <pIC50>
6.756961951313706

$$$$

  SciTegic12180813462D

 32 36  0  0  0  0            999 V2000
    2.0340   -1.4409    0.0000 N   0  0
    2.4580   -0.7327    0.0000 C   0  0
    2.0570   -0.0098    0.0000 C   0  0
    1.2322    0.0006    0.0000 N   0  0
    0.8084   -0.7076    0.0000 C   0  0
    1.2092   -1.4263    0.0000 C   0  0
    1.7917   -4.9904    0.0000 C   0  0
    1.1148   -5.4659    0.0000 C   0  0
    1.1904   -6.2849    0.0000 C   0  0
    1.9346   -6.6325    0.0000 C   0  0
    2.6115   -6.1612    0.0000 C   0  0
    2.5358   -5.3380    0.0000 C   0  0
    1.0078   -3.7432    0.0000 C   0  0
    1.1920   -2.9393    0.0000 C   0  0
    0.5844   -2.3812    0.0000 C   0  0
   -0.2032   -2.6229    0.0000 N   0  0
   -0.3834   -3.4268    0.0000 C   0  0
    0.2201   -3.9891    0.0000 C   0  0
    1.7160   -4.1672    0.0000 N   0  0
    2.3376   -3.6265    0.0000 C   0  0
    2.0151   -2.8679    0.0000 C   0  0
    2.4349   -2.1595    0.0000 C   0  0
    3.2597   -2.1742    0.0000 O   0  0
    3.6504   -2.6325    0.0000 C   0  0
    4.3089   -2.1314    0.0000 C   0  0
    5.0701   -2.4520    0.0000 C   0  0
    5.1728   -3.2737    0.0000 C   0  0
    4.5143   -3.7707    0.0000 C   0  0
    3.7572   -3.4459    0.0000 C   0  0
    4.6170   -4.5882    0.0000 C   0  0
    3.0987   -3.9470    0.0000 O   0  0
    5.9340   -3.5943    0.0000 F   0  0
 14 15  1  0
 22 23  2  0
 22  1  1  0
  3  4  1  0
  4  5  1  0
  5  6  1  0
  1  2  1  0
  1  6  1  0
  2  3  1  0
 10 11  1  0
 15 16  2  0
  8  9  1  0
 16 17  1  0
 11 12  2  0
 17 18  2  0
 18 13  1  0
 27 28  1  0
 25 26  1  0
 28 29  2  0
 29 24  1  0
 24 25  2  0
 28 30  1  0
 26 27  2  0
 29 31  1  0
 27 32  1  0
 20 31  1  0
 12  7  1  0
  7  8  2  0
 20 21  2  0
  9 10  2  0
 19 20  1  0
 21 14  1  0
 13 19  1  0
 19  7  1  0
 13 14  2  0
 21 22  1  0
M  END
>  <ID_NEW>
CPDRE1214

>  <pIC50>
6.742321425130815

$$$$

  SciTegic12180813522D

 35 39  0  0  0  0            999 V2000
    2.0667    1.1167    0.0000 N   0  0
    2.4750    0.4042    0.0000 C   0  0
    3.2917    0.4016    0.0000 C   0  0
    3.7062    1.1098    0.0000 N   0  0
    3.2979    1.8223    0.0000 C   0  0
    2.4750    1.8266    0.0000 C   0  0
    0.2394   -1.5627    0.0000 C   0  0
   -0.4762   -1.9692    0.0000 C   0  0
   -0.4811   -2.7903    0.0000 C   0  0
    0.2290   -3.2060    0.0000 C   0  0
    0.9454   -2.7945    0.0000 C   0  0
    0.9468   -1.9747    0.0000 C   0  0
    2.2932   -1.0547    0.0000 C   0  0
    2.0759   -1.8485    0.0000 C   0  0
    2.6541   -2.4315    0.0000 C   0  0
    3.4497   -2.2220    0.0000 C   0  0
    3.6640   -1.4241    0.0000 C   0  0
    3.0843   -0.8445    0.0000 C   0  0
   -0.4266   -0.2578    0.0000 C   0  0
   -0.2134    0.5402    0.0000 C   0  0
   -0.7973    1.1217    0.0000 C   0  0
   -1.5945    0.9065    0.0000 C   0  0
   -1.8045    0.1045    0.0000 C   0  0
   -1.2192   -0.4736    0.0000 N   0  0
    0.2458   -0.7416    0.0000 N   0  0
    0.9151   -0.2592    0.0000 C   0  0
    0.6583    0.5291    0.0000 C   0  0
    1.7083   -0.4708    0.0000 O   0  0
    1.2417    1.1167    0.0000 C   0  0
    1.0250    1.9167    0.0000 O   0  0
   -0.5875    1.9250    0.0000 C   0  0
   -1.0042    2.6417    0.0000 C   0  0
    3.2958   -0.0417    0.0000 C   0  0
   -0.7917    3.4417    0.0000 C   0  0
    1.2500   -1.8417    0.0000 C   0  0
 19 20  2  0
 20 21  1  0
  9 10  2  0
 21 22  2  0
  1  6  1  0
 22 23  1  0
 10 11  1  0
 23 24  2  0
 24 19  1  0
  2  3  1  0
 11 12  2  0
 26 27  2  0
 12  7  1  0
 25 26  1  0
 27 20  1  0
 19 25  1  0
 25  7  1  0
  3  4  1  0
 26 28  1  0
 28 13  1  0
  4  5  1  0
 27 29  1  0
 13 14  2  0
 29 30  2  0
 29  1  1  0
  5  6  1  0
 21 31  1  0
 14 15  1  0
 31 32  1  0
 18 33  1  0
 15 16  2  0
 32 34  1  0
  1  2  1  0
 14 35  1  0
 16 17  1  0
  7  8  2  0
 17 18  2  0
 18 13  1  0
  8  9  1  0
M  END
>  <ID_NEW>
CPDRE1215

>  <pIC50>
6.730487055782083

$$$$

  SciTegic12180814002D

 44 49  0  0  0  0            999 V2000
   -1.4720    0.3376    0.0000 C   0  0
   -1.0854   -0.3811    0.0000 C   0  0
   -1.0642    1.0445    0.0000 C   0  0
   -2.3084    0.3500    0.0000 O   0  0
   -0.2497   -0.3935    0.0000 C   0  0
   -1.4933   -1.0984    0.0000 C   0  0
   -0.2285    1.0322    0.0000 C   0  0
   -1.4507    1.7736    0.0000 C   0  0
    0.1723    0.3091    0.0000 C   0  0
   -2.6292    2.4458    0.0000 N   0  0
   -1.8292    2.2333    0.0000 C   0  0
   -1.2504    2.8131    0.0000 C   0  0
   -2.2620    3.8293    0.0000 C   0  0
   -2.8504    3.2423    0.0000 C   0  0
   -5.8281    0.9690    0.0000 C   0  0
   -5.8293    0.1374    0.0000 C   0  0
   -5.1104   -0.2754    0.0000 C   0  0
   -5.1122    1.3859    0.0000 N   0  0
   -3.5971    1.2313    0.0000 C   0  0
   -4.3926    0.9726    0.0000 C   0  0
   -4.3900    0.1353    0.0000 C   0  0
   -3.5920   -0.1184    0.0000 N   0  0
   -3.1067    0.5631    0.0000 C   0  0
   -3.1714   -0.8417    0.0000 C   0  0
   -2.3500   -0.8270    0.0000 C   0  0
   -3.5848   -1.5510    0.0000 C   0  0
   -1.9265   -1.5478    0.0000 C   0  0
   -3.1656   -2.2719    0.0000 C   0  0
   -2.3341   -2.2745    0.0000 C   0  0
   -3.3448    2.0208    0.0000 C   0  0
   -3.9031    2.6363    0.0000 O   0  0
   -1.4708    3.6209    0.0000 N   0  0
   -0.5417    2.4042    0.0000 C   0  0
    0.1727    2.8168    0.0000 C   0  0
    0.8873    2.4045    0.0000 N   0  0
    0.1725    3.6418    0.0000 O   0  0
    2.4708    2.3667    0.0000 C   0  0
    2.4667    1.5417    0.0000 O   0  0
    1.8875    2.9500    0.0000 C   0  0
    2.2987    3.6652    0.0000 C   0  0
    1.4737    3.6638    0.0000 C   0  0
    3.2338    2.6805    0.0000 N   0  0
    3.8871    2.1766    0.0000 C   0  0
    3.3436    3.4982    0.0000 C   0  0
 21 22  1  0
 22 23  1  0
 23 19  2  0
 24 25  2  0
 24 26  1  0
 24 22  1  0
 25 27  1  0
 26 28  2  0
 27 29  2  0
 28 29  1  0
 18 15  2  0
 20 21  2  0
 16 17  2  0
 17 21  1  0
 15 16  1  0
 20 18  1  0
 19 20  1  0
 19 30  1  0
 23  4  1  0
 30 31  2  0
 30 10  1  0
 10 11  1  0
 12 32  1  0
 13 32  1  0
 10 14  1  0
 11 12  1  0
 12 33  1  0
 33 34  1  0
 34 35  1  0
 34 36  2  0
  1  2  2  0
  1  3  1  0
  1  4  1  0
  2  5  1  0
  2  6  1  0
  3  7  2  0
  3  8  1  0
  7  9  1  0
  5  9  2  0
 13 14  1  0
 40 39  1  0
 41 40  1  0
 39 41  1  0
 37 38  2  0
 37 39  1  0
 37 42  1  0
 42 43  1  0
 42 44  1  0
 35 39  1  0
M  END
>  <ID_NEW>
CPDRE1216

>  <pIC50>
6.7281583934635005

$$$$

  SciTegic12180813082D

 31 35  0  0  0  0            999 V2000
   -5.7064   -0.8778    0.0000 C   0  0
   -5.6933   -1.7775    0.0000 C   0  0
   -4.9103   -2.2144    0.0000 C   0  0
   -4.9325   -0.4157    0.0000 C   0  0
   -4.1502   -0.8567    0.0000 C   0  0
   -4.1411   -1.7557    0.0000 C   0  0
   -3.2847   -2.0206    0.0000 N   0  0
   -2.7627   -1.2846    0.0000 C   0  0
   -3.2999   -0.5644    0.0000 C   0  0
   -2.9942   -2.8697    0.0000 C   0  0
   -3.5857   -3.5450    0.0000 C   0  0
   -3.2958   -4.3982    0.0000 C   0  0
   -2.4178   -4.5714    0.0000 C   0  0
   -1.8267   -3.9002    0.0000 C   0  0
   -2.1126   -3.0477    0.0000 C   0  0
   -3.0356    0.2849    0.0000 C   0  0
   -2.1638    0.4861    0.0000 O   0  0
   -3.6457    0.9448    0.0000 N   0  0
   -3.3804    1.8012    0.0000 C   0  0
   -3.9906    2.4610    0.0000 C   0  0
   -4.8660    2.2646    0.0000 N   0  0
   -5.1314    1.4082    0.0000 C   0  0
   -4.5212    0.7484    0.0000 C   0  0
   -1.3124   -0.7343    0.0000 C   0  0
   -0.4280   -0.8771    0.0000 C   0  0
   -1.6306    0.1010    0.0000 C   0  0
   -1.8785   -1.4273    0.0000 C   0  0
    0.1421   -0.1854    0.0000 C   0  0
   -0.1064   -1.7175    0.0000 Cl  0  0
   -1.0642    0.7955    0.0000 C   0  0
   -0.1759    0.6521    0.0000 C   0  0
  2  3  1  0
  3  6  2  0
  5  4  2  0
  4  1  1  0
  5  6  1  0
  6  7  1  0
 24 25  2  0
 24 26  1  0
 24 27  1  0
 25 28  1  0
 25 29  1  0
 26 30  2  0
 28 31  2  0
 30 31  1  0
  8 27  1  0
  7  8  1  0
  8  9  2  0
  9  5  1  0
  7 10  1  0
 10 11  2  0
 11 12  1  0
 12 13  2  0
 13 14  1  0
 14 15  2  0
 15 10  1  0
  9 16  1  0
 16 17  2  0
 16 18  1  0
 18 19  1  0
 18 23  1  0
 19 20  1  0
 20 21  1  0
 21 22  1  0
 22 23  1  0
  1  2  2  0
M  END
>  <ID_NEW>
CPDRE1217

>  <pIC50>
6.723538195826755

$$$$

  -MTS-   10172316392D 0   0.00000     0.00000     0

 33 37  0  0  1  0  0  0  0  0999 V2000
   -5.1160   -0.8440    0.0000 C   0  0  0  0  0  0  0  0  0  0  0  0
   -5.8330   -0.4310    0.0000 C   0  0  0  0  0  0  0  0  0  0  0  0
   -5.8300    0.3990    0.0000 C   0  0  0  0  0  0  0  0  0  0  0  0
   -5.1150    0.8090    0.0000 N   0  0  0  0  0  0  0  0  0  0  0  0
   -3.6140   -0.6860    0.0000 N   0  0  0  0  0  0  0  0  0  0  0  0
   -4.4020   -0.4310    0.0000 C   0  0  0  0  0  0  0  0  0  0  0  0
   -4.4010    0.3960    0.0000 C   0  0  0  0  0  0  0  0  0  0  0  0
   -3.6130    0.6510    0.0000 C   0  0  0  0  0  0  0  0  0  0  0  0
   -3.1290   -0.0210    0.0000 C   0  0  0  0  0  0  0  0  0  0  0  0
   -2.3040   -0.0230    0.0000 S   0  0  0  0  0  0  0  0  0  0  0  0
   -3.3560    1.4340    0.0000 C   0  0  0  0  0  0  0  0  0  0  0  0
   -2.5480    1.6040    0.0000 N   0  0  0  0  0  0  0  0  0  0  0  0
   -3.9060    2.0490    0.0000 O   0  0  0  0  0  0  0  0  0  0  0  0
   -1.9980    0.9830    0.0000 C   0  0  0  0  0  0  0  0  0  0  0  0
   -1.1930    1.1490    0.0000 C   0  0  1  0  0  0  0  0  0  0  0  0
   -0.9320    1.9320    0.0000 N   0  0  0  0  0  0  0  0  0  0  0  0
   -1.4810    2.5490    0.0000 C   0  0  0  0  0  0  0  0  0  0  0  0
   -2.2920    2.3830    0.0000 C   0  0  0  0  0  0  0  0  0  0  0  0
   -0.6450    0.5320    0.0000 C   0  0  0  0  0  0  0  0  0  0  0  0
   -1.8940   -0.7390    0.0000 C   0  0  0  0  0  0  0  0  0  0  0  0
   -2.3120   -1.4490    0.0000 C   0  0  0  0  0  0  0  0  0  0  0  0
   -1.9030   -2.1650    0.0000 C   0  0  0  0  0  0  0  0  0  0  0  0
   -1.0770   -2.1670    0.0000 C   0  0  0  0  0  0  0  0  0  0  0  0
   -0.6620   -1.4490    0.0000 C   0  0  0  0  0  0  0  0  0  0  0  0
   -1.0740   -0.7370    0.0000 C   0  0  0  0  0  0  0  0  0  0  0  0
   -3.1120   -1.6580    0.0000 C   0  0  0  0  0  0  0  0  0  0  0  0
    0.1630   -1.4490    0.0000 F   0  0  0  0  0  0  0  0  0  0  0  0
   -3.8330   -1.4790    0.0000 C   0  0  0  0  0  0  0  0  0  0  0  0
   -4.6310   -1.6840    0.0000 C   0  0  0  0  0  0  0  0  0  0  0  0
   -4.8500   -2.4760    0.0000 C   0  0  0  0  0  0  0  0  0  0  0  0
   -4.2730   -3.0630    0.0000 C   0  0  0  0  0  0  0  0  0  0  0  0
   -3.4730   -2.8520    0.0000 C   0  0  0  0  0  0  0  0  0  0  0  0
   -3.2580   -2.0600    0.0000 C   0  0  0  0  0  0  0  0  0  0  0  0
 33 28  1  0  0  0  0
  3  4  2  0  0  0  0
  4  7  1  0  0  0  0
  6  7  2  0  0  0  0
  5  6  1  0  0  0  0
  7  8  1  0  0  0  0
  8  9  2  0  0  0  0
  9  5  1  0  0  0  0
  9 10  1  0  0  0  0
  8 11  1  0  0  0  0
 11 12  1  0  0  0  0
 11 13  2  0  0  0  0
 12 14  1  0  0  0  0
 12 18  1  0  0  0  0
 14 15  1  0  0  0  0
 15 16  1  0  0  0  0
 16 17  1  0  0  0  0
 17 18  1  0  0  0  0
 15 19  1  1  0  0  0
 10 20  1  0  0  0  0
 20 21  2  0  0  0  0
 21 22  1  0  0  0  0
 22 23  2  0  0  0  0
 23 24  1  0  0  0  0
 24 25  2  0  0  0  0
 25 20  1  0  0  0  0
  6  1  1  0  0  0  0
 21 26  1  0  0  0  0
 24 27  1  0  0  0  0
  5 28  1  0  0  0  0
 28 29  2  0  0  0  0
 29 30  1  0  0  0  0
 30 31  2  0  0  0  0
  1  2  2  0  0  0  0
 31 32  1  0  0  0  0
  2  3  1  0  0  0  0
 32 33  2  0  0  0  0
M  END
>  <ID_NEW>
CPDRE1218

>  <pIC50>
6.718966632752272

$$$$

  SciTegic12180813512D

 35 39  0  0  0  0            999 V2000
    9.5777   -4.5333    0.0000 C   0  0
    9.5724   -5.3565    0.0000 C   0  0
   10.2815   -5.7709    0.0000 C   0  0
   10.9964   -5.3632    0.0000 C   0  0
   10.9978   -4.5368    0.0000 C   0  0
   10.2880   -4.1262    0.0000 C   0  0
    7.4541   -2.3250    0.0000 N   0  0
    7.6666   -1.5250    0.0000 C   0  0
    7.0833   -0.9442    0.0000 C   0  0
    6.2842   -1.1578    0.0000 N   0  0
    6.0717   -1.9578    0.0000 C   0  0
    6.6583   -2.5442    0.0000 C   0  0
    5.5718   -3.9602    0.0000 C   0  0
    5.5706   -4.7876    0.0000 C   0  0
    6.2854   -5.2004    0.0000 C   0  0
    6.2836   -3.5474    0.0000 C   0  0
    7.7903   -3.6979    0.0000 C   0  0
    6.9990   -3.9566    0.0000 C   0  0
    7.0016   -4.7897    0.0000 C   0  0
    7.7954   -5.0434    0.0000 N   0  0
    8.2807   -4.3661    0.0000 C   0  0
    8.2160   -5.7625    0.0000 C   0  0
    9.0333   -5.7478    0.0000 C   0  0
    7.8026   -6.4677    0.0000 C   0  0
    9.4526   -6.4645    0.0000 C   0  0
    8.2218   -7.1844    0.0000 C   0  0
    9.0492   -7.1870    0.0000 C   0  0
    4.8572   -3.5479    0.0000 O   0  0
    4.1429   -3.9605    0.0000 C   0  0
    8.0426   -2.9125    0.0000 C   0  0
    8.8490   -2.7383    0.0000 O   0  0
    6.2791   -2.7208    0.0000 C   0  0
    8.9916   -3.9458    0.0000 C   0  0
   10.2833   -3.3000    0.0000 C   0  0
   11.7083   -4.1167    0.0000 F   0  0
  3  4  2  0
  4  5  1  0
  2  3  1  0
 19 20  1  0
 20 21  1  0
 21 17  2  0
 22 23  1  0
 22 24  2  0
 22 20  1  0
 23 25  2  0
 24 26  1  0
 25 27  1  0
 26 27  2  0
 13 28  1  0
 28 29  1  0
 16 13  2  0
 18 19  2  0
 14 15  2  0
 15 19  1  0
 13 14  1  0
 18 16  1  0
 17 18  1  0
 17 30  1  0
 30 31  2  0
 16 32  1  0
 30  7  1  0
  7  8  1  0
  7 12  1  0
  8  9  1  0
  9 10  1  0
 10 11  1  0
 11 12  1  0
  5  6  2  0
 21 33  1  0
 33  1  1  0
  6  1  1  0
  6 34  1  0
  1  2  2  0
  5 35  1  0
M  END
>  <ID_NEW>
CPDRE1219

>  <pIC50>
6.6968039425795105

$$$$

  SciTegic12180813512D

 32 36  0  0  0  0            999 V2000
    6.6382   -3.5539    0.0000 C   0  0
    7.3486   -3.9665    0.0000 C   0  0
    8.0590   -3.5576    0.0000 C   0  0
    8.0602   -2.7364    0.0000 C   0  0
    7.3452   -2.3256    0.0000 C   0  0
    6.6377   -2.7368    0.0000 C   0  0
    3.0988   -3.9385    0.0000 C   0  0
    3.4532   -2.3255    0.0000 N   0  0
    2.6689   -2.5782    0.0000 C   0  0
    2.4876   -3.3805    0.0000 C   0  0
    3.8872   -3.6900    0.0000 C   0  0
    4.0644   -2.8835    0.0000 C   0  0
    4.8865   -2.8047    0.0000 C   0  0
    5.2154   -3.5588    0.0000 C   0  0
    4.5972   -4.1082    0.0000 N   0  0
    4.6760   -4.9303    0.0000 C   0  0
    5.3005   -2.0947    0.0000 C   0  0
    4.8937   -1.3775    0.0000 N   0  0
    6.1255   -2.0978    0.0000 O   0  0
    5.4292   -5.2716    0.0000 C   0  0
    5.5079   -6.0937    0.0000 C   0  0
    4.8377   -6.5703    0.0000 C   0  0
    4.0846   -6.2332    0.0000 C   0  0
    4.0058   -5.4110    0.0000 C   0  0
    5.3119   -0.6634    0.0000 C   0  0
    4.9052    0.0538    0.0000 C   0  0
    4.0802    0.0610    0.0000 N   0  0
    3.6620   -0.6531    0.0000 C   0  0
    4.0688   -1.3703    0.0000 C   0  0
    5.9250   -3.9708    0.0000 O   0  0
    7.3417   -4.7875    0.0000 F   0  0
    7.3375   -1.5000    0.0000 F   0  0
  2  3  1  0
  5  6  2  0
  6  1  1  0
  1  2  2  0
  3  4  2  0
 14 15  1  0
 15 11  1  0
 15 16  1  0
 13 17  1  0
 17 18  1  0
 17 19  2  0
 16 20  2  0
 20 21  1  0
 21 22  2  0
 22 23  1  0
 23 24  2  0
 24 16  1  0
 18 25  1  0
 18 29  1  0
 25 26  1  0
 26 27  1  0
 27 28  1  0
 28 29  1  0
 11  7  1  0
  7 10  2  0
  9  8  2  0
  8 12  1  0
  9 10  1  0
 11 12  2  0
 12 13  1  0
 13 14  2  0
 14 30  1  0
 30  1  1  0
  4  5  1  0
  2 31  1  0
  5 32  1  0
M  END
>  <ID_NEW>
CPDRE1220

>  <pIC50>
6.694648630553376

$$$$

  SciTegic12180813512D

 30 34  0  0  0  0            999 V2000
   -1.5807   -0.0041    0.0000 C   0  0
   -1.5860   -0.8273    0.0000 C   0  0
   -0.8768   -1.2417    0.0000 C   0  0
   -0.1619   -0.8340    0.0000 C   0  0
   -0.1606   -0.0077    0.0000 C   0  0
   -0.8703    0.4030    0.0000 C   0  0
   -3.9459    2.4500    0.0000 N   0  0
   -3.7334    3.2500    0.0000 C   0  0
   -4.3167    3.8308    0.0000 C   0  0
   -5.1158    3.6172    0.0000 N   0  0
   -5.3283    2.8172    0.0000 C   0  0
   -4.7417    2.2308    0.0000 C   0  0
   -5.8282    0.8148    0.0000 C   0  0
   -5.8294   -0.0126    0.0000 C   0  0
   -5.1146   -0.4254    0.0000 C   0  0
   -5.1164    1.2276    0.0000 C   0  0
   -3.6097    1.0771    0.0000 C   0  0
   -4.4010    0.8184    0.0000 C   0  0
   -4.3984   -0.0147    0.0000 N   0  0
   -3.6046   -0.2684    0.0000 C   0  0
   -3.1193    0.4089    0.0000 C   0  0
   -3.1840   -0.9875    0.0000 C   0  0
   -2.3667   -0.9728    0.0000 C   0  0
   -3.5974   -1.6927    0.0000 C   0  0
   -1.9474   -1.6895    0.0000 C   0  0
   -3.1782   -2.4094    0.0000 C   0  0
   -2.3508   -2.4120    0.0000 C   0  0
   -3.3574    1.8625    0.0000 C   0  0
   -2.5510    2.0367    0.0000 O   0  0
   -2.2959    0.4125    0.0000 C   0  0
  4  5  1  0
  2  3  1  0
  5  6  2  0
  6  1  1  0
  1  2  2  0
  3  4  2  0
 19 20  1  0
 20 21  2  0
 21 17  1  0
 22 23  1  0
 22 24  2  0
 22 20  1  0
 23 25  2  0
 24 26  1  0
 25 27  1  0
 26 27  2  0
 16 13  2  0
 18 19  1  0
 14 15  2  0
 15 19  1  0
 13 14  1  0
 18 16  1  0
 17 18  2  0
 17 28  1  0
 28 29  2  0
 28  7  1  0
  7  8  1  0
  7 12  1  0
  8  9  1  0
  9 10  1  0
 10 11  1  0
 11 12  1  0
 21 30  1  0
 30  1  1  0
M  END
>  <ID_NEW>
CPDRE1221

>  <pIC50>
6.688246138944246

$$$$

  SciTegic12180813452D

 32 36  0  0  0  0            999 V2000
   -5.7056    1.5292    0.0000 C   0  0
   -5.7068    0.7018    0.0000 C   0  0
   -4.9919    0.2889    0.0000 C   0  0
   -4.9937    1.9419    0.0000 C   0  0
   -4.2824    1.5291    0.0000 C   0  0
   -4.2776    0.7060    0.0000 C   0  0
   -3.4932    0.4561    0.0000 N   0  0
   -3.0132    1.1249    0.0000 C   0  0
   -3.5010    1.7880    0.0000 C   0  0
   -3.2507    2.5741    0.0000 C   0  0
   -2.4447    2.7504    0.0000 N   0  0
   -3.8063    3.1840    0.0000 O   0  0
   -1.8905    2.1373    0.0000 C   0  0
   -1.0877    2.3109    0.0000 C   0  0
   -0.8332    3.0960    0.0000 N   0  0
   -1.3880    3.7079    0.0000 C   0  0
   -2.1973    3.5347    0.0000 C   0  0
   -3.5000   -0.3667    0.0000 C   0  0
   -4.2183   -0.7703    0.0000 C   0  0
   -4.2254   -1.5924    0.0000 C   0  0
   -3.5157   -2.0105    0.0000 C   0  0
   -2.7973   -1.6006    0.0000 C   0  0
   -2.7937   -0.7799    0.0000 C   0  0
   -2.2208    0.9125    0.0000 O   0  0
   -1.5083    0.5041    0.0000 C   0  0
   -1.5085   -0.3181    0.0000 C   0  0
   -0.7969   -0.7264    0.0000 C   0  0
   -0.0860   -0.3135    0.0000 C   0  0
   -0.0912    0.5119    0.0000 C   0  0
   -0.8034    0.9165    0.0000 C   0  0
   -0.7947   -1.5514    0.0000 F   0  0
   -2.2225   -0.7315    0.0000 F   0  0
 15 16  1  0
 16 17  1  0
  7 18  1  0
 18 19  2  0
 19 20  1  0
 20 21  2  0
 21 22  1  0
 22 23  2  0
 23 18  1  0
  8 24  1  0
 24 25  1  0
 25 26  2  0
 26 27  1  0
 27 28  2  0
 28 29  1  0
 29 30  2  0
 30 25  1  0
 27 31  1  0
  1  2  2  0
  2  3  1  0
  3  6  2  0
  5  4  2  0
  4  1  1  0
  5  6  1  0
  6  7  1  0
  7  8  1  0
  8  9  2  0
  9  5  1  0
  9 10  1  0
 10 11  1  0
 26 32  1  0
 10 12  2  0
 11 13  1  0
 11 17  1  0
 13 14  1  0
 14 15  1  0
M  END
>  <ID_NEW>
CPDRE1222

>  <pIC50>
6.6777807052660805

$$$$

  SciTegic12180813522D

 35 39  0  0  0  0            999 V2000
    7.5500   -5.3167    0.0000 N   0  0
    7.9583   -6.0292    0.0000 C   0  0
    8.7750   -6.0318    0.0000 C   0  0
    9.1895   -5.3236    0.0000 N   0  0
    8.7812   -4.6111    0.0000 C   0  0
    7.9583   -4.6068    0.0000 C   0  0
    5.7228   -7.9961    0.0000 C   0  0
    5.0071   -8.4025    0.0000 C   0  0
    5.0023   -9.2237    0.0000 C   0  0
    5.7123   -9.6393    0.0000 C   0  0
    6.4288   -9.2279    0.0000 C   0  0
    6.4301   -8.4081    0.0000 C   0  0
    7.7765   -7.4880    0.0000 C   0  0
    7.5592   -8.2818    0.0000 C   0  0
    8.1374   -8.8649    0.0000 C   0  0
    8.9331   -8.6554    0.0000 C   0  0
    9.1474   -7.8575    0.0000 C   0  0
    8.5676   -7.2778    0.0000 C   0  0
    5.0568   -6.6911    0.0000 C   0  0
    5.2699   -5.8932    0.0000 C   0  0
    4.6861   -5.3116    0.0000 C   0  0
    3.8889   -5.5268    0.0000 C   0  0
    3.6788   -6.3289    0.0000 C   0  0
    4.2642   -6.9070    0.0000 N   0  0
    5.7292   -7.1750    0.0000 N   0  0
    6.3985   -6.6925    0.0000 C   0  0
    6.1417   -5.9042    0.0000 C   0  0
    7.1917   -6.9042    0.0000 C   0  0
    6.7250   -5.3167    0.0000 C   0  0
    6.5083   -4.5167    0.0000 O   0  0
    4.8958   -4.5083    0.0000 C   0  0
    4.4792   -3.7917    0.0000 C   0  0
    8.7792   -6.4750    0.0000 C   0  0
    9.9417   -7.6375    0.0000 F   0  0
    4.8875   -3.0750    0.0000 C   0  0
 22 23  1  0
 10 11  1  0
 23 24  2  0
 24 19  1  0
  2  3  1  0
 11 12  2  0
 26 27  2  0
 12  7  1  0
 25 26  1  0
 27 20  1  0
 19 25  1  0
 25  7  1  0
  3  4  1  0
 26 28  1  0
 28 13  1  0
  4  5  1  0
 27 29  1  0
 13 14  2  0
 29 30  2  0
 29  1  1  0
  5  6  1  0
 21 31  1  0
 14 15  1  0
 31 32  1  0
 18 33  1  0
 15 16  2  0
 17 34  1  0
  1  2  1  0
 16 17  1  0
  7  8  2  0
 17 18  2  0
 18 13  1  0
  8  9  1  0
 19 20  2  0
 20 21  1  0
  9 10  2  0
 21 22  2  0
 32 35  1  0
  1  6  1  0
M  END
>  <ID_NEW>
CPDRE1223

>  <pIC50>
6.661543506395394

$$$$

  SciTegic12180813462D

 33 37  0  0  0  0            999 V2000
   -3.0380   -0.2804    0.0000 C   0  0
   -3.0348   -1.1804    0.0000 C   0  0
   -2.2549   -1.6275    0.0000 C   0  0
   -2.2614    0.1683    0.0000 C   0  0
   -1.4817   -0.2789    0.0000 C   0  0
   -1.4825   -1.1747    0.0000 C   0  0
   -0.6258   -1.4518    0.0000 N   0  0
   -0.0968   -0.7239    0.0000 C   0  0
   -0.6269    0.0002    0.0000 C   0  0
   -0.3466   -2.3065    0.0000 C   0  0
   -0.3540    0.8570    0.0000 C   0  0
    0.5251    1.0429    0.0000 O   0  0
   -0.9437   -2.9734    0.0000 C   0  0
   -0.6646   -3.8282    0.0000 C   0  0
    0.2116   -4.0118    0.0000 C   0  0
    0.8129   -3.3449    0.0000 C   0  0
    0.5338   -2.4901    0.0000 C   0  0
   -0.9559    1.5237    0.0000 N   0  0
   -0.6789    2.3763    0.0000 C   0  0
   -1.2808    3.0430    0.0000 C   0  0
   -2.1599    2.8529    0.0000 N   0  0
   -2.4370    2.0003    0.0000 C   0  0
   -1.8350    1.3337    0.0000 C   0  0
    1.3594   -0.1882    0.0000 C   0  0
    2.2455   -0.3413    0.0000 C   0  0
    1.0516    0.6535    0.0000 C   0  0
    0.7852   -0.8769    0.0000 O   0  0
    2.8238    0.3474    0.0000 C   0  0
    2.5575   -1.1872    0.0000 C   0  0
    1.6257    1.3421    0.0000 C   0  0
    2.5119    1.1891    0.0000 C   0  0
    3.7099    0.1937    0.0000 F   0  0
   -2.2505   -2.5265    0.0000 F   0  0
 22 23  1  0
 28 32  1  0
  1  2  2  0
  2  3  1  0
  3  6  2  0
  5  4  2  0
  4  1  1  0
  5  6  1  0
  6  7  1  0
 24 25  2  0
 24 26  1  0
 24 27  1  0
 25 28  1  0
 25 29  1  0
 26 30  2  0
 28 31  2  0
  3 33  1  0
 30 31  1  0
  8 27  1  0
  7  8  1  0
  8  9  2  0
  9  5  1  0
  7 10  1  0
  9 11  1  0
 11 12  2  0
 10 13  2  0
 13 14  1  0
 14 15  2  0
 15 16  1  0
 16 17  2  0
 17 10  1  0
 11 18  1  0
 18 19  1  0
 18 23  1  0
 19 20  1  0
 20 21  1  0
 21 22  1  0
M  END
>  <ID_NEW>
CPDRE1224

>  <pIC50>
6.657577319177793

$$$$

  SciTegic12180813492D

 33 37  0  0  0  0            999 V2000
    4.1324   -0.6215    0.0000 N   0  0
    4.3846    0.1616    0.0000 C   0  0
    3.8294    0.7712    0.0000 C   0  0
    3.0222    0.5978    0.0000 N   0  0
    2.7742   -0.1894    0.0000 C   0  0
    3.3252   -0.7991    0.0000 C   0  0
    4.7017   -4.1363    0.0000 C   0  0
    4.1536   -4.7519    0.0000 C   0  0
    4.4119   -5.5344    0.0000 C   0  0
    5.2222   -5.7056    0.0000 C   0  0
    5.7703   -5.0900    0.0000 C   0  0
    5.5121   -4.3074    0.0000 C   0  0
    2.2256   -2.2855    0.0000 C   0  0
    2.2291   -3.1104    0.0000 N   0  0
    2.9443   -3.5206    0.0000 C   0  0
    2.9375   -1.8706    0.0000 C   0  0
    3.6528   -2.2766    0.0000 C   0  0
    3.6604   -3.1016    0.0000 C   0  0
    4.4435   -3.3537    0.0000 N   0  0
    4.9274   -2.6857    0.0000 C   0  0
    4.4396   -2.0184    0.0000 C   0  0
    5.4804   -6.4881    0.0000 F   0  0
    4.6876   -1.2353    0.0000 C   0  0
    5.4948   -1.0577    0.0000 O   0  0
    5.9816   -1.4154    0.0000 C   0  0
    6.5067   -0.7824    0.0000 C   0  0
    7.3185   -0.9187    0.0000 C   0  0
    7.6053   -1.6924    0.0000 C   0  0
    7.0802   -2.3254    0.0000 C   0  0
    6.2642   -2.1901    0.0000 C   0  0
    7.3629   -3.1032    0.0000 C   0  0
    5.7392   -2.8222    0.0000 O   0  0
    6.2199   -0.0046    0.0000 F   0  0
 21 23  1  0
 12  7  1  0
 23 24  2  0
 23  1  1  0
  4  5  1  0
  5  6  1  0
  1  2  1  0
  1  6  1  0
  2  3  1  0
  3  4  1  0
  7  8  2  0
  9 10  2  0
 16 13  1  0
 17 18  1  0
 14 15  1  0
 15 18  2  0
 28 29  1  0
 26 27  1  0
 29 30  2  0
 30 25  1  0
 25 26  2  0
 29 31  1  0
 27 28  2  0
 30 32  1  0
 26 33  1  0
 20 32  1  0
 13 14  2  0
 17 16  2  0
 18 19  1  0
 19 20  1  0
 20 21  2  0
 21 17  1  0
 19  7  1  0
 10 22  1  0
 10 11  1  0
  8  9  1  0
 11 12  2  0
M  END
>  <ID_NEW>
CPDRE1225

>  <pIC50>
6.649751981665837

$$$$

  -MTS-   10172316392D 0   0.00000     0.00000     0

 38 42  0  0  1  0  0  0  0  0999 V2000
   -2.0250    0.3710    0.0000 C   0  0  0  0  0  0  0  0  0  0  0  0
   -2.0250   -0.4540    0.0000 C   0  0  0  0  0  0  0  0  0  0  0  0
   -1.3130   -0.8620    0.0000 C   0  0  0  0  0  0  0  0  0  0  0  0
   -1.3130    0.7880    0.0000 C   0  0  0  0  0  0  0  0  0  0  0  0
   -0.6010    0.3710    0.0000 N   0  0  0  0  0  0  0  0  0  0  0  0
   -0.6010   -0.4510    0.0000 C   0  0  0  0  0  0  0  0  0  0  0  0
    0.1800   -0.7040    0.0000 C   0  0  0  0  0  0  0  0  0  0  0  0
    0.6630   -0.0400    0.0000 C   0  0  0  0  0  0  0  0  0  0  0  0
    0.1800    0.6250    0.0000 C   0  0  0  0  0  0  0  0  0  0  0  0
    0.4350   -1.4890    0.0000 C   0  0  0  0  0  0  0  0  0  0  0  0
    1.4880   -0.0400    0.0000 C   0  0  0  0  0  0  0  0  0  0  0  0
    1.9010   -0.7540    0.0000 C   0  0  0  0  0  0  0  0  0  0  0  0
   -0.1200   -2.0990    0.0000 C   0  0  0  0  0  0  0  0  0  0  0  0
    0.1340   -2.8830    0.0000 C   0  0  0  0  0  0  0  0  0  0  0  0
    0.9420   -3.0550    0.0000 C   0  0  0  0  0  0  0  0  0  0  0  0
    1.4950   -2.4370    0.0000 C   0  0  0  0  0  0  0  0  0  0  0  0
    1.2380   -1.6550    0.0000 C   0  0  0  0  0  0  0  0  0  0  0  0
    1.4850   -1.4680    0.0000 C   0  0  0  0  0  0  0  0  0  0  0  0
    1.8970   -2.1820    0.0000 C   0  0  0  0  0  0  0  0  0  0  0  0
    2.7220   -2.1820    0.0000 C   0  0  0  0  0  0  0  0  0  0  0  0
    3.1350   -1.4630    0.0000 C   0  0  0  0  0  0  0  0  0  0  0  0
    2.7210   -0.7520    0.0000 C   0  0  0  0  0  0  0  0  0  0  0  0
    3.1310   -0.0360    0.0000 C   0  0  0  0  0  0  0  0  0  0  0  0
    3.9600   -1.4600    0.0000 F   0  0  0  0  0  0  0  0  0  0  0  0
    0.4350    1.4090    0.0000 C   0  0  0  0  0  0  0  0  0  0  0  0
    1.2420    1.5810    0.0000 N   0  0  0  0  0  0  0  0  0  0  0  0
   -0.1170    2.0220    0.0000 O   0  0  0  0  0  0  0  0  0  0  0  0
    1.7940    0.9640    0.0000 C   0  0  0  0  0  0  0  0  0  0  0  0
    2.5980    1.1330    0.0000 C   0  0  1  0  0  0  0  0  0  0  0  0
    2.8570    1.9160    0.0000 N   0  0  0  0  0  0  0  0  0  0  0  0
    2.3060    2.5310    0.0000 C   0  0  0  0  0  0  0  0  0  0  0  0
    1.4960    2.3630    0.0000 C   0  0  0  0  0  0  0  0  0  0  0  0
    3.1470    0.5180    0.0000 C   0  0  0  0  0  0  0  0  0  0  0  0
    3.9420    0.7370    0.0000 C   0  0  0  0  0  0  0  0  0  0  0  0
    4.5250    0.1540    0.0000 C   0  0  0  0  0  0  0  0  0  0  0  0
    4.3110   -0.6430    0.0000 O   0  0  0  0  0  0  0  0  0  0  0  0
    5.3220    0.3680    0.0000 N   0  0  0  0  0  0  0  0  0  0  0  0
    5.9050   -0.2160    0.0000 C   0  0  0  0  0  0  0  0  0  0  0  0
  7 10  1  0  0  0  0
 21 22  2  0  0  0  0
 22 12  1  0  0  0  0
  5  6  1  0  0  0  0
 22 23  1  0  0  0  0
  8 11  1  0  0  0  0
 21 24  1  0  0  0  0
  9 25  1  0  0  0  0
 11 12  1  0  0  0  0
 25 26  1  0  0  0  0
  1  2  1  0  0  0  0
 25 27  2  0  0  0  0
 26 28  1  0  0  0  0
 10 13  2  0  0  0  0
  1  4  2  0  0  0  0
 13 14  1  0  0  0  0
  2  3  2  0  0  0  0
 26 32  1  0  0  0  0
 28 29  1  0  0  0  0
 29 30  1  0  0  0  0
 30 31  1  0  0  0  0
 31 32  1  0  0  0  0
 14 15  2  0  0  0  0
  3  6  1  0  0  0  0
 15 16  1  0  0  0  0
  6  7  2  0  0  0  0
 16 17  2  0  0  0  0
 17 10  1  0  0  0  0
  7  8  1  0  0  0  0
 12 18  2  0  0  0  0
 29 33  1  1  0  0  0
  8  9  2  0  0  0  0
 33 34  1  0  0  0  0
 18 19  1  0  0  0  0
 34 35  1  0  0  0  0
  9  5  1  0  0  0  0
 35 36  2  0  0  0  0
 19 20  2  0  0  0  0
 35 37  1  0  0  0  0
  5  4  1  0  0  0  0
 37 38  1  0  0  0  0
 20 21  1  0  0  0  0
M  END
>  <ID_NEW>
CPDRE1226

>  <pIC50>
6.645891560852599

$$$$

  SciTegic12180813472D

 30 34  0  0  0  0            999 V2000
   -4.9940    0.7804    0.0000 C   0  0
   -5.7048    0.3655    0.0000 C   0  0
   -5.6978   -0.4608    0.0000 C   0  0
   -4.9839   -0.8643    0.0000 C   0  0
   -4.2808    0.3732    0.0000 C   0  0
   -4.2777   -0.4530    0.0000 C   0  0
   -3.4910   -0.7054    0.0000 N   0  0
   -3.0078   -0.0352    0.0000 C   0  0
   -3.4959    0.6314    0.0000 C   0  0
   -2.1828   -0.0322    0.0000 C   0  0
   -3.2438    1.4169    0.0000 C   0  0
   -2.4375    1.5914    0.0000 O   0  0
   -3.2332   -1.4891    0.0000 C   0  0
   -3.7141   -2.1592    0.0000 C   0  0
   -3.2268   -2.8249    0.0000 C   0  0
   -2.4430   -2.5671    0.0000 S   0  0
   -2.4461   -1.7421    0.0000 C   0  0
   -3.7980    2.0279    0.0000 N   0  0
   -3.5422    2.8119    0.0000 C   0  0
   -4.0926    3.4216    0.0000 C   0  0
   -4.9001    3.2512    0.0000 N   0  0
   -5.1544    2.4654    0.0000 C   0  0
   -4.6011    1.8499    0.0000 C   0  0
   -1.7677   -0.7452    0.0000 C   0  0
   -2.1779   -1.4582    0.0000 C   0  0
   -1.7635   -2.1707    0.0000 C   0  0
   -0.9376   -2.1681    0.0000 C   0  0
   -0.5279   -1.4471    0.0000 C   0  0
   -0.9447   -0.7376    0.0000 C   0  0
   -0.5381   -0.0197    0.0000 C   0  0
 14 15  2  0
 15 16  1  0
 16 17  1  0
 17 13  2  0
 11 18  1  0
 18 19  1  0
 18 23  1  0
 19 20  1  0
 20 21  1  0
 21 22  1  0
 22 23  1  0
 10 24  1  0
 24 25  2  0
 25 26  1  0
 26 27  2  0
 27 28  1  0
 28 29  2  0
 29 24  1  0
 29 30  1  0
  6  7  1  0
  7  8  1  0
  8  9  2  0
  9  5  1  0
  5  1  1  0
  1  2  2  0
  2  3  1  0
  3  4  2  0
  4  6  1  0
  5  6  2  0
  8 10  1  0
  9 11  1  0
 11 12  2  0
  7 13  1  0
 13 14  1  0
M  END
>  <ID_NEW>
CPDRE1227

>  <pIC50>
6.638272163982406

$$$$

  SciTegic12180813482D

 32 36  0  0  0  0            999 V2000
   -1.6058   -0.4413    0.0000 C   0  0
   -0.8771   -0.8330    0.0000 C   0  0
   -0.1756   -0.3979    0.0000 C   0  0
   -0.2016    0.4288    0.0000 C   0  0
   -0.9351    0.8185    0.0000 C   0  0
   -1.6335    0.3811    0.0000 C   0  0
   -2.3067   -0.8765    0.0000 F   0  0
   -0.9644    1.6430    0.0000 C   0  0
   -3.6069   -0.3027    0.0000 N   0  0
   -3.1208    0.3730    0.0000 C   0  0
   -3.6148    1.0429    0.0000 C   0  0
   -3.6349   -1.2108    0.0000 C   0  0
   -4.3944   -0.0477    0.0000 C   0  0
   -4.3959    0.7807    0.0000 C   0  0
   -5.1134    1.1897    0.0000 C   0  0
   -5.8300    0.7756    0.0000 C   0  0
   -5.8245   -0.0560    0.0000 C   0  0
   -5.1063   -0.4654    0.0000 N   0  0
   -4.4368   -1.6346    0.0000 C   0  0
   -4.4651   -2.5418    0.0000 C   0  0
   -3.6921   -3.0211    0.0000 C   0  0
   -2.8889   -2.5865    0.0000 C   0  0
   -2.8645   -1.6806    0.0000 C   0  0
   -3.3665    1.8296    0.0000 C   0  0
   -2.5610    2.0079    0.0000 O   0  0
   -3.9236    2.4380    0.0000 N   0  0
   -3.6715    3.2252    0.0000 C   0  0
   -4.2247    3.8323    0.0000 C   0  0
   -5.0315    3.6581    0.0000 N   0  0
   -5.2820    2.8710    0.0000 C   0  0
   -4.7258    2.2582    0.0000 C   0  0
   -2.4083    0.7917    0.0000 O   0  0
  4  5  1  0
  2  3  1  0
  5  6  2  0
  6  1  1  0
 13 14  2  0
 14 15  1  0
 15 16  2  0
 16 17  1  0
 17 18  2  0
 18 13  1  0
 13  9  1  0
  9 10  1  0
 10 11  2  0
 11 14  1  0
  9 12  1  0
  1  2  2  0
 12 19  2  0
 19 20  1  0
  3  4  2  0
 20 21  2  0
  1  7  1  0
 21 22  1  0
  5  8  1  0
 22 23  2  0
 23 12  1  0
 11 24  1  0
 24 25  2  0
 24 26  1  0
 26 27  1  0
 26 31  1  0
 27 28  1  0
 28 29  1  0
 29 30  1  0
 30 31  1  0
 10 32  1  0
 32  6  1  0
M  END
>  <ID_NEW>
CPDRE1228

>  <pIC50>
6.636388020107855

$$$$

  SciTegic12180813102D

 31 35  0  0  0  0            999 V2000
   -5.7056    1.2959    0.0000 C   0  0
   -5.7068    0.4685    0.0000 C   0  0
   -4.9919    0.0556    0.0000 C   0  0
   -4.9937    1.7086    0.0000 C   0  0
   -4.2824    1.2958    0.0000 C   0  0
   -4.2776    0.4727    0.0000 C   0  0
   -3.4932    0.2228    0.0000 N   0  0
   -3.0132    0.8916    0.0000 C   0  0
   -3.5010    1.5547    0.0000 C   0  0
   -3.2507    2.3408    0.0000 C   0  0
   -2.4447    2.5171    0.0000 N   0  0
   -3.8063    2.9507    0.0000 O   0  0
   -1.8905    1.9040    0.0000 C   0  0
   -1.0877    2.0776    0.0000 C   0  0
   -0.8332    2.8627    0.0000 N   0  0
   -1.3880    3.4746    0.0000 C   0  0
   -2.1973    3.3014    0.0000 C   0  0
   -3.5000   -0.6000    0.0000 C   0  0
   -4.2183   -1.0036    0.0000 C   0  0
   -4.2254   -1.8257    0.0000 C   0  0
   -3.5157   -2.2438    0.0000 C   0  0
   -2.7973   -1.8339    0.0000 C   0  0
   -2.7937   -1.0132    0.0000 C   0  0
   -2.2208    0.6792    0.0000 S   0  0
   -1.4250    0.4667    0.0000 C   0  0
   -1.2135   -0.3306    0.0000 C   0  0
   -0.4185   -0.5432    0.0000 C   0  0
    0.1644    0.0401    0.0000 C   0  0
   -0.0532    0.8390    0.0000 C   0  0
   -0.8478    1.0479    0.0000 C   0  0
   -0.2047   -1.3400    0.0000 F   0  0
 11 13  1  0
 11 17  1  0
 13 14  1  0
 14 15  1  0
 15 16  1  0
 16 17  1  0
  7 18  1  0
 18 19  2  0
 19 20  1  0
 20 21  2  0
 21 22  1  0
 22 23  2  0
 23 18  1  0
  8 24  1  0
 24 25  1  0
 25 26  2  0
 26 27  1  0
 27 28  2  0
 28 29  1  0
  1  2  2  0
 29 30  2  0
 30 25  1  0
  2  3  1  0
  3  6  2  0
 27 31  1  0
  5  4  2  0
  4  1  1  0
  5  6  1  0
  6  7  1  0
  7  8  1  0
  8  9  2  0
  9  5  1  0
  9 10  1  0
 10 11  1  0
 10 12  2  0
M  END
>  <ID_NEW>
CPDRE1229

>  <pIC50>
6.628932137728262

$$$$

  SciTegic12180813492D

 34 38  0  0  0  0            999 V2000
   -5.0191   -0.0696    0.0000 C   0  0
   -5.7049   -0.4679    0.0000 C   0  0
   -5.6979   -1.2692    0.0000 C   0  0
   -5.0090   -1.6560    0.0000 C   0  0
   -4.3309   -0.4602    0.0000 C   0  0
   -4.3278   -1.2614    0.0000 C   0  0
   -3.5661   -1.5054    0.0000 N   0  0
   -3.0995   -0.8561    0.0000 C   0  0
   -3.5710   -0.2103    0.0000 C   0  0
   -3.3272    0.5460    0.0000 C   0  0
   -2.5501    0.7164    0.0000 O   0  0
   -3.8647    1.1362    0.0000 N   0  0
   -3.6173    1.8952    0.0000 C   0  0
   -4.1468    2.4841    0.0000 C   0  0
   -4.9293    2.3178    0.0000 N   0  0
   -5.1753    1.5570    0.0000 C   0  0
   -4.6387    0.9665    0.0000 C   0  0
   -3.5624   -2.4224    0.0000 C   0  0
   -4.3598   -2.8809    0.0000 C   0  0
   -4.3566   -3.7971    0.0000 C   0  0
   -3.5561   -4.2533    0.0000 N   0  0
   -2.7613   -3.7866    0.0000 C   0  0
   -2.7686   -2.8720    0.0000 C   0  0
   -1.9597   -4.2414    0.0000 O   0  0
   -1.1652   -3.7744    0.0000 C   0  0
   -1.1514   -1.7244    0.0000 C   0  0
   -0.3322   -1.8407    0.0000 C   0  0
    0.1761   -1.1902    0.0000 C   0  0
   -0.1337   -0.4232    0.0000 C   0  0
   -0.9565   -0.3106    0.0000 C   0  0
   -1.4611   -0.9621    0.0000 C   0  0
   -1.2707    0.4522    0.0000 C   0  0
   -2.2828   -0.8530    0.0000 O   0  0
   -0.0237   -2.6058    0.0000 F   0  0
  5  1  1  0
  1  2  2  0
  7 18  1  0
 18 19  2  0
 19 20  1  0
 20 21  2  0
 21 22  1  0
 22 23  2  0
 23 18  1  0
 22 24  1  0
 24 25  1  0
  8 33  1  0
 30 31  2  0
 31 26  1  0
 26 27  2  0
 30 32  1  0
 28 29  2  0
 31 33  1  0
 27 34  1  0
 29 30  1  0
 27 28  1  0
  2  3  1  0
  3  4  2  0
  4  6  1  0
  5  6  2  0
  9 10  1  0
 10 11  2  0
 10 12  1  0
 12 13  1  0
 12 17  1  0
 13 14  1  0
 14 15  1  0
 15 16  1  0
 16 17  1  0
  6  7  1  0
  7  8  1  0
  8  9  2  0
  9  5  1  0
M  END
>  <ID_NEW>
CPDRE1230

>  <pIC50>
6.627087997029893

$$$$

  SciTegic12180813542D

 32 36  0  0  0  0            999 V2000
    8.6714   -6.3242    0.0000 C   0  0
   10.1025   -6.3338    0.0000 C   0  0
   10.8332   -5.0955    0.0000 C   0  0
   10.1222   -3.8444    0.0000 C   0  0
    7.9544   -5.0744    0.0000 N   0  0
    8.6803   -3.8318    0.0000 C   0  0
    7.7229   -2.7574    0.0000 C   0  0
    6.4051   -3.3360    0.0000 C   0  0
    6.5484   -4.7679    0.0000 C   0  0
    8.0293   -1.3513    0.0000 C   0  0
    9.4014   -0.9187    0.0000 C   0  0
    9.7082    0.4859    0.0000 C   0  0
    8.6431    1.4560    0.0000 C   0  0
    7.2664    1.0117    0.0000 C   0  0
    6.9662   -0.3920    0.0000 C   0  0
    5.1624   -2.6101    0.0000 C   0  0
    3.9124   -3.3234    0.0000 C   0  0
    2.6743   -2.5947    0.0000 C   0  0
    1.4252   -3.3068    0.0000 C   0  0
    1.4171   -4.7475    0.0000 C   0  0
    2.6686   -5.4732    0.0000 C   0  0
    3.9126   -4.7569    0.0000 C   0  0
    2.6843   -1.1582    0.0000 C   0  0
    2.6664   -6.9198    0.0000 F   0  0
    5.4741   -5.7254    0.0000 C   0  0
    4.1078   -5.2737    0.0000 O   0  0
    5.7661   -7.1346    0.0000 N   0  0
    4.6855   -8.0838    0.0000 C   0  0
    4.9728   -9.4875    0.0000 C   0  0
    6.3374   -9.9464    0.0000 N   0  0
    7.4153   -8.9904    0.0000 C   0  0
    7.1286   -7.5755    0.0000 C   0  0
  4  6  1  0
 20 21  1  0
  7 10  1  0
 21 22  2  0
 22 17  1  0
  5  6  1  0
 18 23  1  0
 10 11  2  0
 21 24  1  0
  9 25  1  0
 11 12  1  0
 25 26  2  0
  5  1  1  0
 12 13  2  0
  1  2  2  0
 13 14  1  0
  2  3  1  0
 25 27  1  0
 27 28  1  0
 14 15  2  0
 15 10  1  0
  3  4  2  0
  8 16  1  0
  6  7  2  0
 27 32  1  0
 28 29  1  0
 29 30  1  0
 30 31  1  0
 31 32  1  0
 16 17  1  0
  7  8  1  0
 17 18  2  0
  8  9  2  0
 18 19  1  0
  9  5  1  0
 19 20  2  0
M  END
>  <ID_NEW>
CPDRE1231

>  <pIC50>
6.627087997029893

$$$$

  SciTegic12180813522D

 33 37  0  0  0  0            999 V2000
    4.0222   -7.4616    0.0000 C   0  0
    3.2150   -7.6726    0.0000 C   0  0
    2.9954   -8.4811    0.0000 C   0  0
    3.5861   -9.0706    0.0000 C   0  0
    4.3950   -8.8554    0.0000 C   0  0
    4.6114   -8.0516    0.0000 C   0  0
    6.1481   -6.5576    0.0000 C   0  0
    6.8486   -7.7875    0.0000 C   0  0
    7.5596   -7.3838    0.0000 C   0  0
    7.5613   -6.5617    0.0000 C   0  0
    6.8554   -6.1544    0.0000 C   0  0
    2.7336   -6.8110    0.0000 C   0  0
    2.7354   -5.1455    0.0000 N   0  0
    2.0200   -5.5588    0.0000 C   0  0
    2.0194   -6.3939    0.0000 C   0  0
    3.4527   -6.3939    0.0000 C   0  0
    3.4514   -5.5611    0.0000 C   0  0
    4.2448   -5.3024    0.0000 C   0  0
    4.7353   -5.9777    0.0000 C   0  0
    4.2468   -6.6502    0.0000 N   0  0
    4.5000   -4.5116    0.0000 C   0  0
    5.3135   -4.3381    0.0000 N   0  0
    3.9460   -3.8945    0.0000 O   0  0
    5.8683   -4.9602    0.0000 C   0  0
    6.6791   -4.7890    0.0000 C   0  0
    6.8754   -3.9157    0.0000 N   0  0
    6.3803   -3.3802    0.0000 C   0  0
    5.5683   -3.5511    0.0000 C   0  0
    5.5667   -5.9750    0.0000 C   0  0
    6.1417   -7.3667    0.0000 C   0  0
    6.8500   -5.3292    0.0000 C   0  0
    5.5541   -7.9500    0.0000 C   0  0
    8.2708   -7.7958    0.0000 F   0  0
  2  3  1  0
 10 11  2  0
 11  7  1  0
  5  6  2  0
  6  1  1  0
 13 17  1  0
 14 15  1  0
 16 17  2  0
 17 18  1  0
 18 19  2  0
 19 20  1  0
 20 16  1  0
 18 21  1  0
 21 22  1  0
 21 23  2  0
 22 24  1  0
 22 28  1  0
 24 25  1  0
 25 26  1  0
 26 27  1  0
 27 28  1  0
 16 12  1  0
 12 15  2  0
 14 13  2  0
  1  2  2  0
 19 29  1  0
 29  7  1  0
 20  1  1  0
  3  4  2  0
  7 30  2  0
 30  8  1  0
  8  9  2  0
 11 31  1  0
  4  5  1  0
 30 32  1  0
  9 10  1  0
  9 33  1  0
M  END
>  <ID_NEW>
CPDRE1232

>  <pIC50>
6.609064892896621

$$$$

  SciTegic12180813462D

 31 35  0  0  0  0            999 V2000
    0.2764   -1.0405    0.0000 N   0  0
    0.5320   -0.2531    0.0000 C   0  0
   -0.0279    0.3587    0.0000 C   0  0
   -0.8350    0.1870    0.0000 N   0  0
   -1.0864   -0.6046    0.0000 C   0  0
   -0.5307   -1.2205    0.0000 C   0  0
    0.8531   -4.5612    0.0000 C   0  0
    0.3015   -5.1815    0.0000 C   0  0
    0.5604   -5.9638    0.0000 C   0  0
    1.3710   -6.1342    0.0000 C   0  0
    1.9227   -5.5139    0.0000 C   0  0
    1.6596   -4.7315    0.0000 C   0  0
    0.5900   -3.7789    0.0000 N   0  0
    1.0733   -3.1063    0.0000 C   0  0
    0.5849   -2.4393    0.0000 C   0  0
    0.8363   -1.6523    0.0000 C   0  0
    1.6435   -1.4764    0.0000 O   0  0
   -0.1974   -3.5275    0.0000 C   0  0
   -0.2016   -2.6983    0.0000 C   0  0
   -0.9173   -2.2889    0.0000 N   0  0
   -1.6330   -2.7044    0.0000 C   0  0
   -1.6288   -3.5336    0.0000 C   0  0
   -0.9090   -3.9430    0.0000 C   0  0
    3.2342   -2.7481    0.0000 C   0  0
    2.4180   -2.6083    0.0000 C   0  0
    3.7628   -2.1104    0.0000 C   0  0
    3.5217   -3.5214    0.0000 C   0  0
    2.1305   -1.8359    0.0000 C   0  0
    1.8895   -3.2419    0.0000 O   0  0
    3.4753   -1.3338    0.0000 C   0  0
    2.6592   -1.1986    0.0000 C   0  0
 18 13  1  0
 24 25  2  0
 24 26  1  0
 24 27  1  0
 25 28  1  0
 25 29  1  0
 26 30  2  0
 28 31  2  0
 30 31  1  0
 14 29  1  0
 13  7  1  0
 15 16  1  0
 16 17  2  0
 16  1  1  0
  3  4  1  0
  4  5  1  0
  5  6  1  0
  1  2  1  0
  1  6  1  0
  2  3  1  0
 10 11  1  0
 18 19  2  0
  8  9  1  0
 19 20  1  0
 11 12  2  0
 20 21  2  0
 12  7  1  0
 21 22  1  0
  7  8  2  0
 22 23  2  0
 23 18  1  0
 14 15  2  0
  9 10  2  0
 13 14  1  0
 15 19  1  0
M  END
>  <ID_NEW>
CPDRE1233

>  <pIC50>
6.603800652904263

$$$$

  SciTegic12180813502D

 33 37  0  0  0  0            999 V2000
    3.8603   -7.8252    0.0000 C   0  0
    3.1446   -8.2317    0.0000 C   0  0
    3.1398   -9.0528    0.0000 C   0  0
    3.8498   -9.4685    0.0000 C   0  0
    4.5663   -9.0570    0.0000 C   0  0
    4.5676   -8.2372    0.0000 C   0  0
    5.4573   -7.7298    0.0000 C   0  0
    4.8703   -8.3111    0.0000 C   0  0
    5.0806   -9.1080    0.0000 C   0  0
    5.8775   -9.3249    0.0000 C   0  0
    6.4640   -8.7385    0.0000 C   0  0
    6.2506   -7.9438    0.0000 C   0  0
    4.6458   -4.3458    0.0000 N   0  0
    5.2292   -3.7583    0.0000 C   0  0
    5.0132   -2.9638    0.0000 C   0  0
    4.2140   -2.7503    0.0000 N   0  0
    3.6306   -3.3378    0.0000 C   0  0
    3.8466   -4.1388    0.0000 C   0  0
    3.1943   -6.5203    0.0000 C   0  0
    3.4074   -5.7223    0.0000 C   0  0
    2.8236   -5.1408    0.0000 C   0  0
    2.0264   -5.3560    0.0000 C   0  0
    1.8163   -6.1580    0.0000 C   0  0
    2.4017   -6.7361    0.0000 C   0  0
    3.8667   -7.0041    0.0000 N   0  0
    4.5360   -6.5217    0.0000 C   0  0
    4.2792   -5.7334    0.0000 C   0  0
    1.4375   -4.7667    0.0000 Br  0  0
    5.2458   -6.9333    0.0000 O   0  0
    4.8625   -5.1458    0.0000 C   0  0
    5.6583   -5.3583    0.0000 O   0  0
    4.6625   -9.8167    0.0000 F   0  0
    6.8333   -7.3542    0.0000 C   0  0
 15 16  1  0
 16 17  1  0
 17 18  1  0
  8  9  1  0
  1  2  2  0
 19 20  2  0
  9 10  2  0
 20 21  1  0
  4  5  1  0
 21 22  2  0
 10 11  1  0
 22 23  1  0
 23 24  2  0
 24 19  1  0
 11 12  2  0
 12  7  1  0
 26 27  2  0
 13 14  1  0
 25 26  1  0
 27 20  1  0
 19 25  1  0
  5  6  2  0
 22 28  1  0
 25  1  1  0
  6  1  1  0
 26 29  1  0
 29  7  1  0
  2  3  1  0
 27 30  1  0
 30 31  2  0
 30 13  1  0
  7  8  2  0
  9 32  1  0
  3  4  2  0
 12 33  1  0
 13 18  1  0
 14 15  1  0
M  END
>  <ID_NEW>
CPDRE1234

>  <pIC50>
6.593459819566044

$$$$

  SciTegic12180813582D

 33 37  0  0  0  0            999 V2000
   -5.1164    0.4389    0.0000 C   0  0
   -5.8328    0.8523    0.0000 C   0  0
   -5.8300    1.6828    0.0000 C   0  0
   -5.1146    2.0919    0.0000 N   0  3
   -3.6145    0.5970    0.0000 N   0  0
   -4.4016    0.8518    0.0000 C   0  0
   -4.4013    1.6797    0.0000 C   0  0
   -3.6131    1.9340    0.0000 C   0  0
   -3.1290    1.2623    0.0000 C   0  0
   -2.3040    1.2599    0.0000 S   0  0
   -3.3559    2.7178    0.0000 C   0  0
   -2.5484    2.8869    0.0000 N   0  0
   -3.9061    3.3325    0.0000 O   0  0
   -1.9977    2.2660    0.0000 C   0  0
   -1.1933    2.4325    0.0000 C   0  0
   -0.9319    3.2154    0.0000 N   0  0
   -1.4813    3.8321    0.0000 C   0  0
   -2.2921    3.6660    0.0000 C   0  0
   -1.8936    0.5442    0.0000 C   0  0
   -2.3123   -0.1661    0.0000 C   0  0
   -1.9026   -0.8813    0.0000 C   0  0
   -1.0767   -0.8842    0.0000 C   0  0
   -0.6622   -0.1659    0.0000 C   0  0
   -1.0743    0.5464    0.0000 C   0  0
   -3.1125   -0.3750    0.0000 C   0  0
   -3.8333   -0.1958    0.0000 C   0  0
   -4.6311   -0.4003    0.0000 C   0  0
   -4.8501   -1.1924    0.0000 C   0  0
   -4.2726   -1.7793    0.0000 C   0  0
   -3.4731   -1.5687    0.0000 C   0  0
   -3.2578   -0.7771    0.0000 C   0  0
   -0.8625    1.3500    0.0000 C   0  0
   -5.1127    2.9169    0.0000 O   0  5
  1  2  2  0
  2  3  1  0
  3  4  2  0
  4  7  1  0
  6  7  2  0
  5  6  1  0
  7  8  1  0
  8  9  2  0
  9  5  1  0
  9 10  1  0
  8 11  1  0
 11 12  1  0
 11 13  2  0
 12 14  1  0
 12 18  1  0
 14 15  1  0
 15 16  1  0
 16 17  1  0
 17 18  1  0
 10 19  1  0
 19 20  2  0
 20 21  1  0
 21 22  2  0
 22 23  1  0
 23 24  2  0
 24 19  1  0
  6  1  1  0
 20 25  1  0
  5 26  1  0
 26 27  2  0
 27 28  1  0
 28 29  2  0
 29 30  1  0
 30 31  2  0
 31 26  1  0
 24 32  1  0
  4 33  1  0
M  CHG  2   4   1  33  -1
M  END
>  <ID_NEW>
CPDRE1235

>  <pIC50>
6.593459819566044

$$$$

  SciTegic12180813502D

 36 40  0  0  0  0            999 V2000
    7.3476   -7.1737    0.0000 C   0  0
    6.6618   -7.5720    0.0000 C   0  0
    6.6688   -8.3733    0.0000 C   0  0
    7.3577   -8.7601    0.0000 C   0  0
    8.0358   -7.5643    0.0000 C   0  0
    8.0389   -8.3655    0.0000 C   0  0
    8.8006   -8.6095    0.0000 N   0  0
    9.2672   -7.9602    0.0000 C   0  0
    8.7957   -7.3144    0.0000 C   0  0
    9.0395   -6.5581    0.0000 C   0  0
    9.8166   -6.3877    0.0000 O   0  0
    8.5020   -5.9679    0.0000 N   0  0
    8.7494   -5.2089    0.0000 C   0  0
    8.2199   -4.6200    0.0000 C   0  0
    7.4374   -4.7863    0.0000 N   0  0
    7.1914   -5.5471    0.0000 C   0  0
    7.7280   -6.1376    0.0000 C   0  0
    8.8043   -9.5265    0.0000 C   0  0
    8.0069   -9.9850    0.0000 C   0  0
    8.0101  -10.9012    0.0000 C   0  0
    8.8106  -11.3574    0.0000 C   0  0
    9.6054  -10.8907    0.0000 C   0  0
    9.5981   -9.9761    0.0000 C   0  0
   11.2153   -8.8285    0.0000 C   0  0
   12.0345   -8.9448    0.0000 C   0  0
   12.5428   -8.2943    0.0000 C   0  0
   12.2330   -7.5273    0.0000 C   0  0
   11.4102   -7.4147    0.0000 C   0  0
   10.9056   -8.0662    0.0000 C   0  0
   11.0960   -6.6519    0.0000 C   0  0
   10.0839   -7.9571    0.0000 O   0  0
   12.3430   -9.7099    0.0000 F   0  0
    5.9450   -7.1635    0.0000 O   0  0
    5.2329   -7.5801    0.0000 C   0  0
    5.9586   -8.7932    0.0000 O   0  0
    5.2399   -8.3881    0.0000 C   0  0
  2  3  1  0
  3  4  2  0
  4  6  1  0
  5  6  2  0
  9 10  1  0
 10 11  2  0
 10 12  1  0
 12 13  1  0
 12 17  1  0
 13 14  1  0
 14 15  1  0
 15 16  1  0
 16 17  1  0
  6  7  1  0
  7  8  1  0
  8  9  2  0
  9  5  1  0
  5  1  1  0
  1  2  2  0
  7 18  1  0
 18 19  2  0
 19 20  1  0
 20 21  2  0
 21 22  1  0
 22 23  2  0
 23 18  1  0
  8 31  1  0
 28 29  2  0
 29 24  1  0
 24 25  2  0
 28 30  1  0
 26 27  2  0
 29 31  1  0
 25 32  1  0
 27 28  1  0
 25 26  1  0
  2 33  1  0
 33 34  1  0
  3 35  1  0
 35 36  1  0
M  END
>  <ID_NEW>
CPDRE1236

>  <pIC50>
6.581698708680253

$$$$

  -MTS-   10172316392D 0   0.00000     0.00000     0

 36 40  0  0  1  0  0  0  0  0999 V2000
    6.2110   -4.1250    0.0000 C   0  0  0  0  0  0  0  0  0  0  0  0
    6.2060   -4.9480    0.0000 C   0  0  0  0  0  0  0  0  0  0  0  0
    6.9150   -5.3620    0.0000 C   0  0  0  0  0  0  0  0  0  0  0  0
    7.6300   -4.9550    0.0000 C   0  0  0  0  0  0  0  0  0  0  0  0
    7.6310   -4.1280    0.0000 C   0  0  0  0  0  0  0  0  0  0  0  0
    6.9210   -3.7180    0.0000 C   0  0  0  0  0  0  0  0  0  0  0  0
    3.8750   -1.8870    0.0000 N   0  0  0  0  0  0  0  0  0  0  0  0
    4.0870   -1.0870    0.0000 C   0  0  0  0  0  0  0  0  0  0  0  0
    3.5040   -0.5070    0.0000 C   0  0  1  0  0  0  0  0  0  0  0  0
    2.7050   -0.7200    0.0000 N   0  0  0  0  0  0  0  0  0  0  0  0
    2.4930   -1.5200    0.0000 C   0  0  0  0  0  0  0  0  0  0  0  0
    3.0790   -2.1070    0.0000 C   0  0  0  0  0  0  0  0  0  0  0  0
    1.9930   -3.5230    0.0000 C   0  0  0  0  0  0  0  0  0  0  0  0
    1.9910   -4.3500    0.0000 C   0  0  0  0  0  0  0  0  0  0  0  0
    2.7060   -4.7630    0.0000 C   0  0  0  0  0  0  0  0  0  0  0  0
    2.7040   -3.1100    0.0000 N   0  0  0  0  0  0  0  0  0  0  0  0
    4.2110   -3.2600    0.0000 C   0  0  0  0  0  0  0  0  0  0  0  0
    3.4200   -3.5190    0.0000 C   0  0  0  0  0  0  0  0  0  0  0  0
    3.4220   -4.3520    0.0000 C   0  0  0  0  0  0  0  0  0  0  0  0
    4.2160   -4.6060    0.0000 N   0  0  0  0  0  0  0  0  0  0  0  0
    4.7020   -3.9290    0.0000 C   0  0  0  0  0  0  0  0  0  0  0  0
    4.4630   -2.4750    0.0000 C   0  0  0  0  0  0  0  0  0  0  0  0
    5.2700   -2.3010    0.0000 O   0  0  0  0  0  0  0  0  0  0  0  0
    3.9120    0.2120    0.0000 C   0  0  0  0  0  0  0  0  0  0  0  0
    4.7370    0.2120    0.0000 O   0  0  0  0  0  0  0  0  0  0  0  0
    5.3210    0.8000    0.0000 C   0  0  0  0  0  0  0  0  0  0  0  0
    4.2080   -5.4290    0.0000 C   0  0  0  0  0  0  0  0  0  0  0  0
    3.4900   -5.8330    0.0000 C   0  0  0  0  0  0  0  0  0  0  0  0
    3.4800   -6.6520    0.0000 C   0  0  0  0  0  0  0  0  0  0  0  0
    4.1870   -7.0750    0.0000 C   0  0  0  0  0  0  0  0  0  0  0  0
    4.9050   -6.6710    0.0000 C   0  0  0  0  0  0  0  0  0  0  0  0
    4.9170   -5.8450    0.0000 C   0  0  0  0  0  0  0  0  0  0  0  0
    5.4960   -3.7080    0.0000 O   0  0  0  0  0  0  0  0  0  0  0  0
    5.4870   -5.3540    0.0000 C   0  0  0  0  0  0  0  0  0  0  0  0
    6.9170   -2.8920    0.0000 C   0  0  0  0  0  0  0  0  0  0  0  0
    6.9080   -6.1870    0.0000 F   0  0  0  0  0  0  0  0  0  0  0  0
 15 19  2  0  0  0  0
 13 14  2  0  0  0  0
 18 16  2  0  0  0  0
 17 18  1  0  0  0  0
 17 22  1  0  0  0  0
 22 23  2  0  0  0  0
 22  7  1  0  0  0  0
  9 10  1  0  0  0  0
 10 11  1  0  0  0  0
 11 12  1  0  0  0  0
  7  8  1  0  0  0  0
  7 12  1  0  0  0  0
  8  9  1  0  0  0  0
 19 20  1  0  0  0  0
  9 24  1  1  0  0  0
 20 21  1  0  0  0  0
 24 25  1  0  0  0  0
 21 17  2  0  0  0  0
 25 26  1  0  0  0  0
  6  1  1  0  0  0  0
 20 27  1  0  0  0  0
 27 28  1  0  0  0  0
  1  2  2  0  0  0  0
  3  4  2  0  0  0  0
  4  5  1  0  0  0  0
  2  3  1  0  0  0  0
 27 32  1  0  0  0  0
 28 29  1  0  0  0  0
 29 30  1  0  0  0  0
 30 31  1  0  0  0  0
 31 32  1  0  0  0  0
  5  6  2  0  0  0  0
 21 33  1  0  0  0  0
 33  1  1  0  0  0  0
 16 13  1  0  0  0  0
  2 34  1  0  0  0  0
 18 19  1  0  0  0  0
  6 35  1  0  0  0  0
 14 15  1  0  0  0  0
  3 36  1  0  0  0  0
M  END
>  <ID_NEW>
CPDRE1237

>  <pIC50>
6.575118363368932

$$$$

  SciTegic12180813482D

 36 40  0  0  0  0            999 V2000
   -4.9190    0.2262    0.0000 C   0  0
   -5.7048   -0.2345    0.0000 C   0  0
   -5.6978   -1.1441    0.0000 C   0  0
   -4.9089   -1.5893    0.0000 C   0  0
   -4.1308   -0.2226    0.0000 C   0  0
   -4.1277   -1.1363    0.0000 C   0  0
   -3.2537   -1.4138    0.0000 N   0  0
   -2.7203   -0.6727    0.0000 C   0  0
   -3.2626    0.0647    0.0000 C   0  0
   -2.9813    0.9336    0.0000 C   0  0
   -2.0917    1.1247    0.0000 O   0  0
   -3.5980    1.6071    0.0000 N   0  0
   -3.3131    2.4744    0.0000 C   0  0
   -3.9218    3.1508    0.0000 C   0  0
   -4.8126    2.9595    0.0000 N   0  0
   -5.0961    2.0946    0.0000 C   0  0
   -4.4845    1.4082    0.0000 C   0  0
   -1.8099   -0.6724    0.0000 C   0  0
   -1.2257    0.0335    0.0000 C   0  0
   -0.3289   -0.1238    0.0000 C   0  0
    0.2550    0.5771    0.0000 C   0  0
   -0.0653    1.4343    0.0000 C   0  0
   -0.9662    1.5827    0.0000 C   0  0
   -1.5465    0.8806    0.0000 C   0  0
   -0.0140   -0.9769    0.0000 C   0  0
   -3.1224   -2.3171    0.0000 C   0  0
   -3.8355   -2.8831    0.0000 C   0  0
   -3.7005   -3.7857    0.0000 C   0  0
   -2.8527   -4.1211    0.0000 C   0  0
   -2.1352   -3.5478    0.0000 C   0  0
   -2.2735   -2.6471    0.0000 C   0  0
   -1.5639   -2.0718    0.0000 O   0  0
   -0.7155   -2.4034    0.0000 C   0  0
   -0.0018   -1.8322    0.0000 C   0  0
    0.8465   -2.1596    0.0000 O   0  0
    1.5603   -1.5884    0.0000 C   0  0
  4  6  1  0
  5  6  2  0
  9 10  1  0
 10 11  2  0
 10 12  1  0
 12 13  1  0
 12 17  1  0
 13 14  1  0
 14 15  1  0
 15 16  1  0
 16 17  1  0
  8 18  1  0
 18 19  1  0
  7 26  1  0
 26 27  2  0
 27 28  1  0
 28 29  2  0
 29 30  1  0
 30 31  2  0
 31 26  1  0
 31 32  1  0
 32 33  1  0
 33 34  1  0
 34 35  1  0
 35 36  1  0
 19 20  2  0
 20 21  1  0
 21 22  2  0
 22 23  1  0
 23 24  2  0
 24 19  1  0
 20 25  1  0
  6  7  1  0
  7  8  1  0
  8  9  2  0
  9  5  1  0
  5  1  1  0
  1  2  2  0
  2  3  1  0
  3  4  2  0
M  END
>  <ID_NEW>
CPDRE1238

>  <pIC50>
6.557520230935551

$$$$

  SciTegic12180813562D

 36 40  0  0  0  0            999 V2000
    2.8323   -4.8882    0.0000 C   0  0
    2.2453   -5.4694    0.0000 C   0  0
    2.4556   -6.2664    0.0000 C   0  0
    3.2525   -6.4832    0.0000 C   0  0
    3.8390   -5.8969    0.0000 C   0  0
    3.6256   -5.1022    0.0000 C   0  0
    4.5182   -4.0088    0.0000 C   0  0
    4.3009   -4.8026    0.0000 C   0  0
    4.8791   -5.3857    0.0000 C   0  0
    5.6747   -5.1762    0.0000 C   0  0
    5.8890   -4.3783    0.0000 C   0  0
    5.3093   -3.7987    0.0000 C   0  0
    3.6333   -1.7417    0.0000 N   0  0
    4.2167   -2.3250    0.0000 C   0  0
    5.0091   -2.1127    0.0000 C   0  0
    5.2247   -1.3170    0.0000 N   0  0
    4.6413   -0.7337    0.0000 C   0  0
    3.8424   -0.9460    0.0000 C   0  0
    2.6236   -4.0950    0.0000 N   0  0
    3.1106   -3.4286    0.0000 C   0  0
    2.6273   -2.7596    0.0000 C   0  0
    1.8417   -3.0125    0.0000 C   0  0
    1.8394   -3.8379    0.0000 C   0  0
    0.4152   -3.0166    0.0000 C   0  0
    0.4141   -3.8440    0.0000 C   0  0
    1.1289   -4.2569    0.0000 C   0  0
    1.1271   -2.6039    0.0000 N   0  0
    3.9333   -3.4250    0.0000 O   0  0
    2.8375   -1.9583    0.0000 C   0  0
    2.2500   -1.3708    0.0000 O   0  0
    3.4750   -4.7958    0.0000 C   0  0
    5.5208   -2.9958    0.0000 C   0  0
    4.8500    0.0667    0.0000 C   0  0
    5.6458    0.2833    0.0000 C   0  0
    6.2292   -0.3000    0.0000 C   0  0
    6.0125   -1.0958    0.0000 C   0  0
  4  5  1  0
  9 10  2  0
 20 21  2  0
  2  3  1  0
 10 11  1  0
  5  6  2  0
 19 20  1  0
 21 22  1  0
 23 19  1  0
 11 12  2  0
 12  7  1  0
 24 25  2  0
 13 14  1  0
 25 26  1  0
 26 23  2  0
  6  1  1  0
 22 27  2  0
 27 24  1  0
 19  1  1  0
  1  2  2  0
 20 28  1  0
 28  7  1  0
  3  4  2  0
 21 29  1  0
  7  8  2  0
 29 30  2  0
 29 13  1  0
  8 31  1  0
  8  9  1  0
 12 32  1  0
 13 18  1  0
 17 33  1  0
 14 15  1  0
 33 34  1  0
 15 16  1  0
 34 35  1  0
 16 17  1  0
 35 36  1  0
 17 18  1  0
 22 23  1  0
M  END
>  <ID_NEW>
CPDRE1239

>  <pIC50>
6.54515513999149

$$$$

  -MTS-   10172316392D 0   0.00000     0.00000     0

 35 39  0  0  1  0  0  0  0  0999 V2000
   -5.1130   -2.0120    0.0000 C   0  0  0  0  0  0  0  0  0  0  0  0
   -5.8310   -1.6010    0.0000 C   0  0  0  0  0  0  0  0  0  0  0  0
   -5.8310   -0.7710    0.0000 C   0  0  0  0  0  0  0  0  0  0  0  0
   -5.1170   -0.3590    0.0000 N   0  0  0  0  0  0  0  0  0  0  0  0
   -3.6240   -0.5120    0.0000 C   0  0  0  0  0  0  0  0  0  0  0  0
   -3.1350   -1.1750    0.0000 C   0  0  0  0  0  0  0  0  0  0  0  0
   -3.6140   -1.8450    0.0000 N   0  0  0  0  0  0  0  0  0  0  0  0
   -4.4000   -1.5970    0.0000 C   0  0  0  0  0  0  0  0  0  0  0  0
   -4.4060   -0.7720    0.0000 C   0  0  0  0  0  0  0  0  0  0  0  0
   -3.3530   -2.6280    0.0000 C   0  0  0  0  0  0  0  0  0  0  0  0
   -3.9020   -3.2410    0.0000 C   0  0  0  0  0  0  0  0  0  0  0  0
   -3.6420   -4.0230    0.0000 C   0  0  0  0  0  0  0  0  0  0  0  0
   -2.8330   -4.1890    0.0000 C   0  0  0  0  0  0  0  0  0  0  0  0
   -2.2840   -3.5670    0.0000 C   0  0  0  0  0  0  0  0  0  0  0  0
   -2.5480   -2.7870    0.0000 C   0  0  0  0  0  0  0  0  0  0  0  0
   -3.3760    0.2750    0.0000 C   0  0  0  0  0  0  0  0  0  0  0  0
   -2.5700    0.4530    0.0000 O   0  0  0  0  0  0  0  0  0  0  0  0
   -4.5870    2.2090    0.0000 N   0  0  0  0  0  0  0  0  0  0  0  0
   -3.7610    2.2810    0.0000 C   0  0  1  0  0  0  0  0  0  0  0  0
   -3.4110    3.0210    0.0000 C   0  0  0  0  0  0  0  0  0  0  0  0
   -3.6390    0.8470    0.0000 N   0  0  0  0  0  0  0  0  0  0  0  0
   -3.2940    1.6110    0.0000 C   0  0  0  0  0  0  0  0  0  0  0  0
   -4.9420    1.4570    0.0000 C   0  0  0  0  0  0  0  0  0  0  0  0
   -2.5930    3.0880    0.0000 O   0  0  0  0  0  0  0  0  0  0  0  0
   -4.4760    0.7870    0.0000 C   0  0  0  0  0  0  0  0  0  0  0  0
   -2.2390    3.8310    0.0000 C   0  0  0  0  0  0  0  0  0  0  0  0
   -2.3100   -1.1680    0.0000 O   0  0  0  0  0  0  0  0  0  0  0  0
   -1.5170   -1.3790    0.0000 C   0  0  0  0  0  0  0  0  0  0  0  0
   -1.3050   -2.1730    0.0000 C   0  0  0  0  0  0  0  0  0  0  0  0
   -0.5130   -2.3840    0.0000 C   0  0  0  0  0  0  0  0  0  0  0  0
    0.0670   -1.8030    0.0000 C   0  0  0  0  0  0  0  0  0  0  0  0
   -0.1500   -1.0070    0.0000 C   0  0  0  0  0  0  0  0  0  0  0  0
   -0.9420   -0.8000    0.0000 C   0  0  0  0  0  0  0  0  0  0  0  0
   -1.1590   -0.0040    0.0000 C   0  0  0  0  0  0  0  0  0  0  0  0
   -1.8890   -2.7560    0.0000 C   0  0  0  0  0  0  0  0  0  0  0  0
  8  1  1  0  0  0  0
  1  2  2  0  0  0  0
  2  3  1  0  0  0  0
  3  4  2  0  0  0  0
  4  9  1  0  0  0  0
  8  9  2  0  0  0  0
  6  7  1  0  0  0  0
  5  6  2  0  0  0  0
  7  8  1  0  0  0  0
  9  5  1  0  0  0  0
  7 10  1  0  0  0  0
 10 11  2  0  0  0  0
 11 12  1  0  0  0  0
 12 13  2  0  0  0  0
 13 14  1  0  0  0  0
 14 15  2  0  0  0  0
 15 10  1  0  0  0  0
  5 16  1  0  0  0  0
 16 17  2  0  0  0  0
 16 21  1  0  0  0  0
 19 18  1  0  0  0  0
 19 20  1  1  0  0  0
 21 25  1  0  0  0  0
 22 19  1  0  0  0  0
 23 18  1  0  0  0  0
 24 20  1  0  0  0  0
 25 23  1  0  0  0  0
 26 24  1  0  0  0  0
 21 22  1  0  0  0  0
  6 27  1  0  0  0  0
 27 28  1  0  0  0  0
 28 29  2  0  0  0  0
 29 30  1  0  0  0  0
 30 31  2  0  0  0  0
 31 32  1  0  0  0  0
 32 33  2  0  0  0  0
 33 28  1  0  0  0  0
 33 34  1  0  0  0  0
 29 35  1  0  0  0  0
M  END
>  <ID_NEW>
CPDRE1240

>  <pIC50>
6.5376020021010435

$$$$

  SciTegic12180813472D

 34 38  0  0  0  0            999 V2000
   -5.7056    0.3751    0.0000 C   0  0
   -5.7068   -0.4523    0.0000 C   0  0
   -4.9920   -0.8652    0.0000 C   0  0
   -4.9938    0.7878    0.0000 C   0  0
   -4.2784    0.3787    0.0000 C   0  0
   -4.2736   -0.4477    0.0000 C   0  0
   -3.4861   -0.6986    0.0000 N   0  0
   -3.0041   -0.0271    0.0000 C   0  0
   -3.4939    0.6386    0.0000 C   0  0
   -3.2266   -1.4817    0.0000 C   0  0
   -3.7781   -2.0933    0.0000 C   0  0
   -3.5192   -2.8758    0.0000 C   0  0
   -2.7104   -3.0432    0.0000 C   0  0
   -2.1611   -2.4220    0.0000 N   0  0
   -2.4230   -1.6419    0.0000 C   0  0
   -3.2436    1.4247    0.0000 C   0  0
   -2.4376    1.6010    0.0000 O   0  0
   -3.7992    2.0346    0.0000 N   0  0
   -3.5468    2.8176    0.0000 C   0  0
   -4.0985    3.4261    0.0000 C   0  0
   -4.9057    3.2539    0.0000 N   0  0
   -5.1582    2.4675    0.0000 C   0  0
   -4.6035    1.8533    0.0000 C   0  0
   -2.1791   -0.0222    0.0000 C   0  0
   -1.4667   -0.4333    0.0000 C   0  0
   -1.4692   -1.2569    0.0000 C   0  0
   -0.7577   -1.6678    0.0000 C   0  0
   -0.0445   -1.2563    0.0000 C   0  0
   -0.0474   -0.4296    0.0000 C   0  0
   -0.7595   -0.0223    0.0000 C   0  0
   -0.7624    0.8027    0.0000 C   0  0
    0.6655   -0.0144    0.0000 F   0  0
   -2.4498   -3.8260    0.0000 O   0  0
   -2.9975   -4.4430    0.0000 C   0  0
 14 15  2  0
 15 10  1  0
  9 16  1  0
 16 17  2  0
 16 18  1  0
 18 19  1  0
 18 23  1  0
 19 20  1  0
 20 21  1  0
 21 22  1  0
 22 23  1  0
  8 24  1  0
 24 25  1  0
 25 26  2  0
 26 27  1  0
 27 28  2  0
 28 29  1  0
 29 30  2  0
 30 25  1  0
 30 31  1  0
 29 32  1  0
 13 33  1  0
 33 34  1  0
  1  2  2  0
  2  3  1  0
  3  6  2  0
  5  4  2  0
  4  1  1  0
  5  6  1  0
  6  7  1  0
  7  8  1  0
  8  9  2  0
  9  5  1  0
  7 10  1  0
 10 11  2  0
 11 12  1  0
 12 13  2  0
 13 14  1  0
M  END
>  <ID_NEW>
CPDRE1241

>  <pIC50>
6.514278573518419

$$$$

  SciTegic12180813512D

 34 38  0  0  0  0            999 V2000
    4.3625   -2.1500    0.0000 N   0  0
    4.5750   -2.9458    0.0000 C   0  0
    5.3660   -3.1585    0.0000 C   0  0
    5.9502   -2.5786    0.0000 N   0  0
    5.7377   -1.7828    0.0000 C   0  0
    4.9410   -1.5668    0.0000 C   0  0
    4.4419   -4.2382    0.0000 C   0  0
    4.0252   -4.9486    0.0000 C   0  0
    4.4319   -5.6626    0.0000 C   0  0
    5.2553   -5.6674    0.0000 C   0  0
    5.6702   -4.9523    0.0000 C   0  0
    5.2610   -4.2412    0.0000 C   0  0
    2.5644   -4.6169    0.0000 C   0  0
    1.8487   -5.0233    0.0000 C   0  0
    1.8439   -5.8445    0.0000 C   0  0
    2.5540   -6.2601    0.0000 C   0  0
    3.2704   -5.8487    0.0000 C   0  0
    3.2717   -5.0289    0.0000 C   0  0
    1.8984   -3.3119    0.0000 C   0  0
    2.1115   -2.5140    0.0000 C   0  0
    1.5277   -1.9324    0.0000 C   0  0
    0.7305   -2.1476    0.0000 C   0  0
    0.5204   -2.9497    0.0000 C   0  0
    1.1058   -3.5278    0.0000 C   0  0
    2.5708   -3.7958    0.0000 N   0  0
    3.2401   -3.3133    0.0000 C   0  0
    2.9833   -2.5250    0.0000 C   0  0
    3.5666   -1.9375    0.0000 C   0  0
    3.3500   -1.1375    0.0000 O   0  0
    4.0333   -3.5250    0.0000 O   0  0
    5.6666   -3.5208    0.0000 C   0  0
    4.0125   -6.3750    0.0000 F   0  0
    0.1417   -1.5583    0.0000 C   0  0
   -0.4458   -0.9708    0.0000 N   0  0
 21 22  2  0
  4  5  1  0
 22 23  1  0
 11 12  2  0
 23 24  2  0
 24 19  1  0
 12  7  1  0
  5  6  1  0
 26 27  2  0
 25 26  1  0
 27 20  1  0
 19 25  1  0
 13 14  2  0
 27 28  1  0
  1  2  1  0
 28 29  2  0
 28  1  1  0
 14 15  1  0
 26 30  1  0
 30  7  1  0
 25 13  1  0
  7  8  2  0
 15 16  2  0
  1  6  1  0
 12 31  1  0
 16 17  1  0
  9 32  1  0
  8  9  1  0
 17 18  2  0
 18 13  1  0
  2  3  1  0
  9 10  2  0
 19 20  2  0
  3  4  1  0
 22 33  1  0
 33 34  3  0
 20 21  1  0
 10 11  1  0
M  END
>  <ID_NEW>
CPDRE1242

>  <pIC50>
6.514278573518419

$$$$

  SciTegic12180813082D

 31 35  0  0  0  0            999 V2000
   -3.4902   -1.0278    0.0000 N   0  0
   -3.0083   -0.3563    0.0000 C   0  0
   -3.4981    0.3094    0.0000 C   0  0
   -3.2307   -1.8109    0.0000 C   0  0
   -3.2477    1.0955    0.0000 C   0  0
   -2.4418    1.2717    0.0000 O   0  0
   -3.7823   -2.4225    0.0000 C   0  0
   -3.5233   -3.2050    0.0000 C   0  0
   -2.7146   -3.3725    0.0000 C   0  0
   -2.1653   -2.7512    0.0000 N   0  0
   -2.4271   -1.9711    0.0000 C   0  0
   -3.8033    1.7053    0.0000 N   0  0
   -3.5495    2.4926    0.0000 C   0  0
   -4.1012    3.1011    0.0000 C   0  0
   -4.9084    2.9289    0.0000 N   0  0
   -5.1608    2.1425    0.0000 C   0  0
   -4.6062    1.5283    0.0000 C   0  0
   -2.1833   -0.3514    0.0000 O   0  0
   -1.3584   -0.3500    0.0000 C   0  0
   -0.9465   -1.0660    0.0000 C   0  0
   -0.1224   -1.0650    0.0000 C   0  0
    0.2897   -0.3493    0.0000 C   0  0
   -0.1284    0.3668    0.0000 C   0  0
   -0.9512    0.3622    0.0000 C   0  0
   -1.3592   -1.7804    0.0000 C   0  0
   -4.2777   -0.7770    0.0000 C   0  0
   -4.2793    0.0472    0.0000 C   0  0
   -4.9927    0.4561    0.0000 C   0  0
   -5.7050    0.0420    0.0000 C   0  0
   -5.6994   -0.7853    0.0000 C   0  0
   -4.9855   -1.1905    0.0000 C   0  0
  2 18  1  0
 18 19  1  0
 19 20  2  0
 20 21  1  0
 21 22  2  0
 22 23  1  0
 23 24  2  0
 24 19  1  0
 20 25  1  0
 26 27  2  0
 27 28  1  0
 28 29  2  0
 29 30  1  0
 30 31  2  0
 31 26  1  0
 26  1  1  0
  1  2  1  0
  2  3  2  0
  3 27  1  0
  1  4  1  0
  3  5  1  0
  5  6  2  0
  4  7  2  0
  7  8  1  0
  8  9  2  0
  9 10  1  0
 10 11  2  0
 11  4  1  0
  5 12  1  0
 12 13  1  0
 12 17  1  0
 13 14  1  0
 14 15  1  0
 15 16  1  0
 16 17  1  0
M  END
>  <ID_NEW>
CPDRE1243

>  <pIC50>
6.511449283499555

$$$$

  SciTegic12180813512D

 32 36  0  0  0  0            999 V2000
    6.6382   -3.5539    0.0000 C   0  0
    7.3486   -3.9665    0.0000 C   0  0
    8.0590   -3.5576    0.0000 C   0  0
    8.0602   -2.7364    0.0000 C   0  0
    7.3452   -2.3256    0.0000 C   0  0
    6.6377   -2.7368    0.0000 C   0  0
    3.0988   -3.9385    0.0000 C   0  0
    3.4532   -2.3255    0.0000 N   0  0
    2.6689   -2.5782    0.0000 C   0  0
    2.4876   -3.3805    0.0000 C   0  0
    3.8872   -3.6900    0.0000 C   0  0
    4.0644   -2.8835    0.0000 C   0  0
    4.8865   -2.8047    0.0000 C   0  0
    5.2154   -3.5588    0.0000 C   0  0
    4.5972   -4.1082    0.0000 N   0  0
    4.6760   -4.9303    0.0000 C   0  0
    5.3005   -2.0947    0.0000 C   0  0
    4.8937   -1.3775    0.0000 N   0  0
    6.1255   -2.0978    0.0000 O   0  0
    5.4292   -5.2716    0.0000 C   0  0
    5.5079   -6.0937    0.0000 C   0  0
    4.8377   -6.5703    0.0000 C   0  0
    4.0846   -6.2332    0.0000 C   0  0
    4.0058   -5.4110    0.0000 C   0  0
    5.3119   -0.6634    0.0000 C   0  0
    4.9052    0.0538    0.0000 C   0  0
    4.0802    0.0610    0.0000 N   0  0
    3.6620   -0.6531    0.0000 C   0  0
    4.0688   -1.3703    0.0000 C   0  0
    5.9250   -3.9708    0.0000 O   0  0
    7.3417   -4.7875    0.0000 F   0  0
    8.7708   -3.9667    0.0000 F   0  0
  2  3  1  0
  5  6  2  0
  6  1  1  0
  1  2  2  0
  3  4  2  0
 14 15  1  0
 15 11  1  0
 15 16  1  0
 13 17  1  0
 17 18  1  0
 17 19  2  0
 16 20  2  0
 20 21  1  0
 21 22  2  0
 22 23  1  0
 23 24  2  0
 24 16  1  0
 18 25  1  0
 18 29  1  0
 25 26  1  0
 26 27  1  0
 27 28  1  0
 28 29  1  0
 11  7  1  0
  7 10  2  0
  9  8  2  0
  8 12  1  0
  9 10  1  0
 11 12  2  0
 12 13  1  0
 13 14  2  0
 14 30  1  0
 30  1  1  0
  4  5  1  0
  2 31  1  0
  3 32  1  0
M  END
>  <ID_NEW>
CPDRE1244

>  <pIC50>
6.508638306165727

$$$$

  -MTS-   10172316392D 0   0.00000     0.00000     0

 35 39  0  0  1  0  0  0  0  0999 V2000
    6.4330   -4.1490    0.0000 C   0  0  0  0  0  0  0  0  0  0  0  0
    6.6440   -4.9430    0.0000 C   0  0  0  0  0  0  0  0  0  0  0  0
    7.4360   -5.1560    0.0000 C   0  0  0  0  0  0  0  0  0  0  0  0
    8.0170   -4.5760    0.0000 C   0  0  0  0  0  0  0  0  0  0  0  0
    7.8020   -3.7800    0.0000 C   0  0  0  0  0  0  0  0  0  0  0  0
    7.0100   -3.5700    0.0000 C   0  0  0  0  0  0  0  0  0  0  0  0
    4.1750   -2.1120    0.0000 N   0  0  0  0  0  0  0  0  0  0  0  0
    4.3870   -1.3120    0.0000 C   0  0  0  0  0  0  0  0  0  0  0  0
    3.8040   -0.7320    0.0000 C   0  0  1  0  0  0  0  0  0  0  0  0
    3.0050   -0.9450    0.0000 N   0  0  0  0  0  0  0  0  0  0  0  0
    2.7920   -1.7450    0.0000 C   0  0  0  0  0  0  0  0  0  0  0  0
    3.3790   -2.3320    0.0000 C   0  0  0  0  0  0  0  0  0  0  0  0
    3.0280   -4.9910    0.0000 C   0  0  0  0  0  0  0  0  0  0  0  0
    2.3100   -4.5800    0.0000 C   0  0  0  0  0  0  0  0  0  0  0  0
    2.3100   -3.7500    0.0000 N   0  0  0  0  0  0  0  0  0  0  0  0
    3.0240   -3.3380    0.0000 C   0  0  0  0  0  0  0  0  0  0  0  0
    4.5170   -3.4910    0.0000 C   0  0  0  0  0  0  0  0  0  0  0  0
    5.0070   -4.1540    0.0000 C   0  0  0  0  0  0  0  0  0  0  0  0
    4.5280   -4.8240    0.0000 N   0  0  0  0  0  0  0  0  0  0  0  0
    3.7420   -4.5760    0.0000 C   0  0  0  0  0  0  0  0  0  0  0  0
    3.7350   -3.7510    0.0000 C   0  0  0  0  0  0  0  0  0  0  0  0
    4.7890   -5.6070    0.0000 C   0  0  0  0  0  0  0  0  0  0  0  0
    4.2400   -6.2200    0.0000 C   0  0  0  0  0  0  0  0  0  0  0  0
    4.5000   -7.0020    0.0000 C   0  0  0  0  0  0  0  0  0  0  0  0
    5.3090   -7.1680    0.0000 C   0  0  0  0  0  0  0  0  0  0  0  0
    5.8570   -6.5460    0.0000 C   0  0  0  0  0  0  0  0  0  0  0  0
    5.5940   -5.7660    0.0000 C   0  0  0  0  0  0  0  0  0  0  0  0
    4.7660   -2.7040    0.0000 C   0  0  0  0  0  0  0  0  0  0  0  0
    5.5720   -2.5260    0.0000 O   0  0  0  0  0  0  0  0  0  0  0  0
    1.5970   -4.9940    0.0000 O   0  0  0  0  0  0  0  0  0  0  0  0
    0.8810   -4.5830    0.0000 C   0  0  0  0  0  0  0  0  0  0  0  0
    4.0170    0.0650    0.0000 C   0  0  0  0  0  0  0  0  0  0  0  0
    5.7170   -3.7330    0.0000 C   0  0  0  0  0  0  0  0  0  0  0  0
    6.0540   -5.5250    0.0000 C   0  0  0  0  0  0  0  0  0  0  0  0
    7.4290   -5.9790    0.0000 F   0  0  0  0  0  0  0  0  0  0  0  0
  4  5  1  0  0  0  0
  2  3  1  0  0  0  0
  5  6  2  0  0  0  0
  6  1  1  0  0  0  0
 14 15  2  0  0  0  0
 15 16  1  0  0  0  0
 16 21  2  0  0  0  0
 20 21  1  0  0  0  0
 18 19  1  0  0  0  0
 17 18  2  0  0  0  0
 19 20  1  0  0  0  0
 21 17  1  0  0  0  0
 19 22  1  0  0  0  0
 22 23  1  0  0  0  0
 23 24  1  0  0  0  0
 24 25  1  0  0  0  0
 25 26  1  0  0  0  0
 26 27  1  0  0  0  0
 27 22  1  0  0  0  0
 17 28  1  0  0  0  0
 28 29  2  0  0  0  0
 14 30  1  0  0  0  0
 30 31  1  0  0  0  0
 28  7  1  0  0  0  0
  8  9  1  0  0  0  0
  9 10  1  0  0  0  0
 10 11  1  0  0  0  0
 11 12  1  0  0  0  0
  7  8  1  0  0  0  0
  7 12  1  0  0  0  0
  9 32  1  1  0  0  0
 20 13  2  0  0  0  0
 13 14  1  0  0  0  0
  1  2  2  0  0  0  0
 18 33  1  0  0  0  0
 33  1  1  0  0  0  0
  3  4  2  0  0  0  0
  2 34  1  0  0  0  0
  3 35  1  0  0  0  0
M  END
>  <ID_NEW>
CPDRE1245

>  <pIC50>
6.500312917381596

$$$$

  SciTegic12180813512D

 33 37  0  0  0  0            999 V2000
    2.5436   -1.7752    0.0000 C   0  0
    1.8279   -2.1817    0.0000 C   0  0
    1.8231   -3.0028    0.0000 C   0  0
    2.5332   -3.4185    0.0000 C   0  0
    3.2496   -3.0070    0.0000 C   0  0
    3.2509   -2.1872    0.0000 C   0  0
    4.3378   -1.5966    0.0000 C   0  0
    3.9210   -2.3070    0.0000 C   0  0
    4.3278   -3.0209    0.0000 C   0  0
    5.1511   -3.0258    0.0000 C   0  0
    5.5660   -2.3107    0.0000 C   0  0
    5.1569   -1.5996    0.0000 C   0  0
    4.3417    0.6917    0.0000 N   0  0
    4.7500   -0.0208    0.0000 C   0  0
    5.5667   -0.0234    0.0000 C   0  0
    5.9812    0.6848    0.0000 N   0  0
    5.5729    1.3973    0.0000 C   0  0
    4.7500    1.4016    0.0000 C   0  0
    1.8776   -0.4703    0.0000 C   0  0
    2.0907    0.3277    0.0000 C   0  0
    1.5069    0.9092    0.0000 C   0  0
    0.7097    0.6940    0.0000 C   0  0
    0.4996   -0.1080    0.0000 N   0  0
    1.0850   -0.6861    0.0000 C   0  0
    2.5500   -0.9541    0.0000 N   0  0
    3.2193   -0.4717    0.0000 C   0  0
    2.9625    0.3166    0.0000 C   0  0
    0.8667   -1.4792    0.0000 Cl  0  0
    3.9292   -0.8833    0.0000 O   0  0
    3.5458    0.9042    0.0000 C   0  0
    3.1292    1.6208    0.0000 O   0  0
    4.1083   -3.8167    0.0000 F   0  0
    5.7375   -1.0083    0.0000 C   0  0
 19 20  2  0
  3  4  2  0
 20 21  1  0
  9 10  2  0
 21 22  2  0
 22 23  1  0
 10 11  1  0
 23 24  2  0
 24 19  1  0
  4  5  1  0
 11 12  2  0
 26 27  2  0
 12  7  1  0
 25 26  1  0
 27 20  1  0
 19 25  1  0
 25  1  1  0
 13 14  1  0
 24 28  1  0
  1  2  2  0
 26 29  1  0
 29  7  1  0
  5  6  2  0
 27 30  1  0
  6  1  1  0
 30 31  2  0
 30 13  1  0
  9 32  1  0
  2  3  1  0
 12 33  1  0
  7  8  2  0
 13 18  1  0
 14 15  1  0
 15 16  1  0
 16 17  1  0
 17 18  1  0
  8  9  1  0
M  END
>  <ID_NEW>
CPDRE1246

>  <pIC50>
6.497572880015566

$$$$

  -MTS-   10172316392D 0   0.00000     0.00000     0

 35 39  0  0  1  0  0  0  0  0999 V2000
    4.0580   -2.9370    0.0000 C   0  0  0  0  0  0  0  0  0  0  0  0
    4.2690   -3.7310    0.0000 C   0  0  0  0  0  0  0  0  0  0  0  0
    5.0610   -3.9440    0.0000 C   0  0  0  0  0  0  0  0  0  0  0  0
    5.6420   -3.3640    0.0000 C   0  0  0  0  0  0  0  0  0  0  0  0
    5.4270   -2.5670    0.0000 C   0  0  0  0  0  0  0  0  0  0  0  0
    4.6350   -2.3580    0.0000 C   0  0  0  0  0  0  0  0  0  0  0  0
    3.0210   -0.8670    0.0000 N   0  0  0  0  0  0  0  0  0  0  0  0
    3.8170   -1.0790    0.0000 C   0  0  0  0  0  0  0  0  0  0  0  0
    4.3950   -0.4990    0.0000 C   0  0  2  0  0  0  0  0  0  0  0  0
    3.3880    0.5080    0.0000 C   0  0  0  0  0  0  0  0  0  0  0  0
    2.8040   -0.0740    0.0000 C   0  0  0  0  0  0  0  0  0  0  0  0
   -0.1610   -2.3350    0.0000 C   0  0  0  0  0  0  0  0  0  0  0  0
   -0.1630   -3.1630    0.0000 C   0  0  0  0  0  0  0  0  0  0  0  0
    0.5520   -3.5750    0.0000 C   0  0  0  0  0  0  0  0  0  0  0  0
    0.5500   -1.9220    0.0000 N   0  0  0  0  0  0  0  0  0  0  0  0
    2.0570   -2.0730    0.0000 C   0  0  0  0  0  0  0  0  0  0  0  0
    1.2660   -2.3320    0.0000 C   0  0  0  0  0  0  0  0  0  0  0  0
    1.2680   -3.1650    0.0000 C   0  0  0  0  0  0  0  0  0  0  0  0
    2.0620   -3.4180    0.0000 N   0  0  0  0  0  0  0  0  0  0  0  0
    2.5470   -2.7410    0.0000 C   0  0  0  0  0  0  0  0  0  0  0  0
    2.4830   -4.1370    0.0000 C   0  0  0  0  0  0  0  0  0  0  0  0
    3.3000   -4.1230    0.0000 C   0  0  0  0  0  0  0  0  0  0  0  0
    2.0690   -4.8430    0.0000 C   0  0  0  0  0  0  0  0  0  0  0  0
    3.7190   -4.8390    0.0000 C   0  0  0  0  0  0  0  0  0  0  0  0
    2.4890   -5.5590    0.0000 C   0  0  0  0  0  0  0  0  0  0  0  0
    3.3160   -5.5620    0.0000 C   0  0  0  0  0  0  0  0  0  0  0  0
    2.3090   -1.2870    0.0000 C   0  0  0  0  0  0  0  0  0  0  0  0
    1.7550   -0.6760    0.0000 O   0  0  0  0  0  0  0  0  0  0  0  0
    5.1920   -0.7130    0.0000 C   0  0  0  0  0  0  0  0  0  0  0  0
    4.1750    0.3040    0.0000 N   0  0  0  0  0  0  0  0  0  0  0  0
    5.9040   -0.2960    0.0000 C   0  0  0  0  0  0  0  0  0  0  0  0
    6.6170   -0.7080    0.0000 O   0  0  0  0  0  0  0  0  0  0  0  0
    3.3420   -2.5210    0.0000 O   0  0  0  0  0  0  0  0  0  0  0  0
    4.4200   -1.5620    0.0000 C   0  0  0  0  0  0  0  0  0  0  0  0
    3.6840   -4.3130    0.0000 C   0  0  0  0  0  0  0  0  0  0  0  0
  3  4  2  0  0  0  0
  4  5  1  0  0  0  0
  2  3  1  0  0  0  0
 15 12  2  0  0  0  0
 17 18  2  0  0  0  0
 13 14  2  0  0  0  0
 14 18  1  0  0  0  0
 12 13  1  0  0  0  0
 17 15  1  0  0  0  0
 16 17  1  0  0  0  0
 16 27  1  0  0  0  0
 27 28  2  0  0  0  0
 27  7  1  0  0  0  0
  7  8  1  0  0  0  0
  9 29  1  1  0  0  0
  9 30  1  0  0  0  0
 10 30  1  0  0  0  0
  7 11  1  0  0  0  0
  8  9  1  0  0  0  0
 10 11  1  0  0  0  0
 18 19  1  0  0  0  0
 19 20  1  0  0  0  0
 20 16  2  0  0  0  0
 29 31  1  0  0  0  0
 31 32  1  0  0  0  0
 21 22  2  0  0  0  0
 21 23  1  0  0  0  0
 21 19  1  0  0  0  0
 22 24  1  0  0  0  0
 23 25  2  0  0  0  0
 24 26  2  0  0  0  0
 25 26  1  0  0  0  0
  5  6  2  0  0  0  0
 20 33  1  0  0  0  0
 33  1  1  0  0  0  0
  6  1  1  0  0  0  0
  6 34  1  0  0  0  0
  1  2  2  0  0  0  0
  2 35  1  0  0  0  0
M  END
>  <ID_NEW>
CPDRE1247

>  <pIC50>
6.497572880015566

$$$$

  -MTS-   10172316392D 0   0.00000     0.00000     0

 44 48  0  0  1  0  0  0  0  0999 V2000
   -1.4720    0.3380    0.0000 C   0  0  0  0  0  0  0  0  0  0  0  0
   -1.0850   -0.3810    0.0000 C   0  0  0  0  0  0  0  0  0  0  0  0
   -1.0640    1.0440    0.0000 C   0  0  0  0  0  0  0  0  0  0  0  0
   -2.3080    0.3500    0.0000 O   0  0  0  0  0  0  0  0  0  0  0  0
   -0.2500   -0.3930    0.0000 C   0  0  0  0  0  0  0  0  0  0  0  0
   -1.4930   -1.0980    0.0000 C   0  0  0  0  0  0  0  0  0  0  0  0
   -0.2280    1.0320    0.0000 C   0  0  0  0  0  0  0  0  0  0  0  0
   -1.4510    1.7740    0.0000 C   0  0  0  0  0  0  0  0  0  0  0  0
    0.1720    0.3090    0.0000 C   0  0  0  0  0  0  0  0  0  0  0  0
   -2.6290    2.4460    0.0000 N   0  0  0  0  0  0  0  0  0  0  0  0
   -1.8290    2.2330    0.0000 C   0  0  0  0  0  0  0  0  0  0  0  0
   -1.2500    2.8130    0.0000 C   0  0  0  0  0  0  0  0  0  0  0  0
   -2.2620    3.8290    0.0000 C   0  0  0  0  0  0  0  0  0  0  0  0
   -2.8500    3.2420    0.0000 C   0  0  0  0  0  0  0  0  0  0  0  0
   -5.8280    0.9690    0.0000 C   0  0  0  0  0  0  0  0  0  0  0  0
   -5.8290    0.1370    0.0000 C   0  0  0  0  0  0  0  0  0  0  0  0
   -5.1100   -0.2750    0.0000 C   0  0  0  0  0  0  0  0  0  0  0  0
   -5.1120    1.3860    0.0000 N   0  0  0  0  0  0  0  0  0  0  0  0
   -3.5970    1.2310    0.0000 C   0  0  0  0  0  0  0  0  0  0  0  0
   -4.3930    0.9730    0.0000 C   0  0  0  0  0  0  0  0  0  0  0  0
   -4.3900    0.1350    0.0000 C   0  0  0  0  0  0  0  0  0  0  0  0
   -3.5920   -0.1180    0.0000 N   0  0  0  0  0  0  0  0  0  0  0  0
   -3.1070    0.5630    0.0000 C   0  0  0  0  0  0  0  0  0  0  0  0
   -3.1710   -0.8420    0.0000 C   0  0  0  0  0  0  0  0  0  0  0  0
   -2.3500   -0.8270    0.0000 C   0  0  0  0  0  0  0  0  0  0  0  0
   -3.5850   -1.5510    0.0000 C   0  0  0  0  0  0  0  0  0  0  0  0
   -1.9260   -1.5480    0.0000 C   0  0  0  0  0  0  0  0  0  0  0  0
   -3.1660   -2.2720    0.0000 C   0  0  0  0  0  0  0  0  0  0  0  0
   -2.3340   -2.2740    0.0000 C   0  0  0  0  0  0  0  0  0  0  0  0
   -3.3450    2.0210    0.0000 C   0  0  0  0  0  0  0  0  0  0  0  0
   -3.9030    2.6360    0.0000 O   0  0  0  0  0  0  0  0  0  0  0  0
   -1.4710    3.6210    0.0000 N   0  0  0  0  0  0  0  0  0  0  0  0
   -0.5420    2.4040    0.0000 C   0  0  0  0  0  0  0  0  0  0  0  0
    0.1730    2.8170    0.0000 C   0  0  0  0  0  0  0  0  0  0  0  0
    0.1720    3.6420    0.0000 O   0  0  0  0  0  0  0  0  0  0  0  0
    1.0870    2.3920    0.0000 N   0  0  0  0  0  0  0  0  0  0  0  0
    1.6710    1.8080    0.0000 C   0  0  0  0  0  0  0  0  0  0  0  0
    2.2540    2.3960    0.0000 C   0  0  2  0  0  0  0  0  0  0  0  0
    2.8370    1.8120    0.0000 C   0  0  0  0  0  0  0  0  0  0  0  0
    3.4210    2.4000    0.0000 N   0  0  0  0  0  0  0  0  0  0  0  0
    2.8330    0.9870    0.0000 O   0  0  0  0  0  0  0  0  0  0  0  0
    4.2180    2.1890    0.0000 C   0  0  0  0  0  0  0  0  0  0  0  0
    3.2040    3.1960    0.0000 C   0  0  0  0  0  0  0  0  0  0  0  0
    2.2460    3.2210    0.0000 C   0  0  0  0  0  0  0  0  0  0  0  0
 21 22  1  0  0  0  0
 22 23  1  0  0  0  0
 23 19  2  0  0  0  0
 24 25  2  0  0  0  0
 24 26  1  0  0  0  0
 24 22  1  0  0  0  0
 25 27  1  0  0  0  0
 26 28  2  0  0  0  0
 27 29  2  0  0  0  0
 28 29  1  0  0  0  0
 18 15  2  0  0  0  0
 20 21  2  0  0  0  0
 16 17  2  0  0  0  0
 17 21  1  0  0  0  0
 15 16  1  0  0  0  0
 20 18  1  0  0  0  0
 19 20  1  0  0  0  0
 19 30  1  0  0  0  0
 23  4  1  0  0  0  0
 30 31  2  0  0  0  0
 30 10  1  0  0  0  0
 10 11  1  0  0  0  0
 12 32  1  0  0  0  0
 13 32  1  0  0  0  0
 10 14  1  0  0  0  0
 11 12  1  0  0  0  0
 12 33  1  0  0  0  0
 33 34  1  0  0  0  0
 34 35  2  0  0  0  0
  1  2  2  0  0  0  0
  1  3  1  0  0  0  0
  1  4  1  0  0  0  0
  2  5  1  0  0  0  0
  2  6  1  0  0  0  0
  3  7  2  0  0  0  0
  3  8  1  0  0  0  0
  7  9  1  0  0  0  0
  5  9  2  0  0  0  0
 13 14  1  0  0  0  0
 37 38  1  0  0  0  0
 38 39  1  0  0  0  0
 39 40  1  0  0  0  0
 39 41  2  0  0  0  0
 40 42  1  0  0  0  0
 36 37  1  0  0  0  0
 40 43  1  0  0  0  0
 38 44  1  1  0  0  0
 34 36  1  0  0  0  0
M  END
>  <ID_NEW>
CPDRE1248

>  <pIC50>
6.48017200622428

$$$$

  SciTegic12180814002D

 33 37  0  0  0  0            999 V2000
    6.5951   -5.9735    0.0000 C   0  0
    6.3344   -6.6784    0.0000 C   0  0
    6.8129   -7.2534    0.0000 C   0  0
    7.5563   -7.1233    0.0000 C   0  0
    7.8087   -6.4185    0.0000 C   0  0
    7.3301   -5.8435    0.0000 C   0  0
    4.2141   -5.1515    0.0000 C   0  0
    4.2154   -5.9015    0.0000 N   0  0
    4.9268   -6.1329    0.0000 C   0  0
    5.3732   -5.5286    0.0000 C   0  0
    4.9330   -4.9183    0.0000 C   0  0
    2.9205   -5.1491    0.0000 C   0  0
    3.5708   -4.7711    0.0000 C   0  0
    6.1124   -5.3985    0.0000 C   0  0
    5.1598   -4.2047    0.0000 C   0  0
    4.6624   -3.6485    0.0000 O   0  0
    7.5908   -5.1386    0.0000 C   0  0
    8.5479   -6.2885    0.0000 F   0  0
    2.9135   -5.8991    0.0000 C   0  0
    3.5651   -6.2753    0.0000 C   0  0
    5.1604   -6.8474    0.0000 C   0  0
    4.6567   -7.4029    0.0000 C   0  0
    4.8904   -8.1174    0.0000 C   0  0
    5.6234   -8.2723    0.0000 C   0  0
    6.1270   -7.7168    0.0000 C   0  0
    5.8935   -7.0023    0.0000 C   0  0
    2.2689   -4.7730    0.0000 Br  0  0
    7.3657   -3.7396    0.0000 N   0  0
    6.8641   -3.1802    0.0000 C   0  0
    7.1305   -4.4534    0.0000 C   0  0
    6.1316   -3.3404    0.0000 C   0  0
    6.3980   -4.6057    0.0000 C   0  0
    5.8965   -4.0483    0.0000 N   0  0
 14  1  1  0
  1  2  2  0
 11 15  1  0
  3  4  2  0
 15 16  2  0
  4  5  1  0
  2  3  1  0
  6 17  1  0
  8  9  1  0
  5 18  1  0
  9 10  2  0
 10 11  1  0
 19 20  2  0
 12 19  1  0
 20  8  1  0
  9 21  1  0
 11  7  2  0
 21 22  2  0
  5  6  2  0
 22 23  1  0
  6  1  1  0
 23 24  2  0
  7 13  1  0
 24 25  1  0
 13 12  2  0
 25 26  2  0
 26 21  1  0
 12 27  1  0
  7  8  1  0
 10 14  1  0
 28 29  1  0
 28 30  1  0
 29 31  1  0
 30 32  1  0
 31 33  1  0
 32 33  1  0
 15 33  1  0
M  END
>  <ID_NEW>
CPDRE1249

>  <pIC50>
6.4461169733561245

$$$$

  SciTegic12180814002D

 40 44  0  0  0  0            999 V2000
    5.5952   -5.4345    0.0000 C   0  0
    5.7866   -4.6308    0.0000 N   0  0
    4.2102   -5.1090    0.0000 N   0  0
    4.8113   -5.6722    0.0000 C   0  0
    5.1833   -4.0703    0.0000 C   0  0
    4.3930   -4.3082    0.0000 C   0  0
    3.7864   -8.7339    0.0000 C   0  0
    3.1993   -9.3152    0.0000 C   0  0
    3.4097  -10.1121    0.0000 C   0  0
    4.2066  -10.3290    0.0000 C   0  0
    4.7930   -9.7426    0.0000 C   0  0
    4.5796   -8.9479    0.0000 C   0  0
    3.6088   -6.5909    0.0000 C   0  0
    3.5898   -7.9363    0.0000 N   0  0
    4.0871   -7.2678    0.0000 C   0  0
    3.6040   -5.7624    0.0000 C   0  0
    3.0124   -5.1707    0.0000 O   0  0
    4.8791   -7.0499    0.0000 O   0  0
    5.5916   -7.4624    0.0000 C   0  0
    5.5878   -8.2868    0.0000 C   0  0
    6.2995   -8.6992    0.0000 C   0  0
    7.0140   -8.2883    0.0000 C   0  0
    7.0123   -7.4608    0.0000 C   0  0
    6.3001   -7.0521    0.0000 C   0  0
    6.2958   -6.2249    0.0000 C   0  0
    6.3042   -5.8458    0.0000 C   0  0
    7.0167   -5.4291    0.0000 C   0  0
    7.0125   -4.6041    0.0000 O   0  0
    7.7292   -5.8416    0.0000 N   0  0
    8.4416   -5.4208    0.0000 C   0  0
    9.1500   -5.8333    0.0000 C   0  0
    9.8625   -5.4167    0.0000 C   0  0
   10.5750   -5.8292    0.0000 N   0  0
    2.8026   -7.6704    0.0000 C   0  0
    2.8163   -6.8378    0.0000 C   0  0
    2.1032   -6.4115    0.0000 N   0  0
    1.3759   -6.8166    0.0000 C   0  0
    1.3662   -7.6525    0.0000 C   0  0
    2.0800   -8.0751    0.0000 C   0  0
    4.8708   -8.6916    0.0000 C   0  0
 34 14  1  0
 14 15  1  0
 15 13  2  0
 14  7  1  0
  7  8  1  0
  9 10  1  0
 10 11  1  0
  8  9  1  0
 13 16  1  0
 11 12  1  0
 12  7  1  0
 16 17  2  0
 15 18  1  0
 18 19  1  0
 19 20  2  0
 20 21  1  0
 21 22  2  0
  1  2  1  0
 22 23  1  0
  2  5  1  0
 23 24  2  0
 24 19  1  0
  5  6  1  0
 24 25  1  0
 16  3  1  0
  1 26  1  0
 26 27  1  0
 27 28  2  0
 27 29  1  0
 29 30  1  0
 30 31  1  0
 31 32  1  0
 32 33  3  0
 34 35  2  0
 35 36  1  0
  3  4  1  0
 36 37  2  0
  3  6  1  0
 37 38  1  0
  4  1  1  0
 38 39  2  0
 39 34  1  0
 13 35  1  0
 20 40  1  0
M  END
>  <ID_NEW>
CPDRE1250

>  <pIC50>
6.412289034981088

$$$$

  SciTegic12180813452D

 32 36  0  0  0  0            999 V2000
    2.3390   -3.3213    0.0000 C   0  0
    2.1217   -4.1151    0.0000 C   0  0
    2.6999   -4.6982    0.0000 C   0  0
    3.4956   -4.4887    0.0000 C   0  0
    3.7099   -3.6908    0.0000 C   0  0
    3.1301   -3.1112    0.0000 C   0  0
    0.5426   -3.5037    0.0000 C   0  0
   -0.2560   -3.7146    0.0000 C   0  0
   -0.4712   -4.5101    0.0000 C   0  0
    0.1113   -5.0954    0.0000 C   0  0
    0.9118   -4.8798    0.0000 C   0  0
    1.1232   -4.0847    0.0000 C   0  0
    2.5000   -0.9917    0.0000 N   0  0
    2.9083   -1.7042    0.0000 C   0  0
    3.7250   -1.7068    0.0000 C   0  0
    4.1395   -0.9986    0.0000 N   0  0
    3.7312   -0.2861    0.0000 C   0  0
    2.9083   -0.2818    0.0000 C   0  0
   -0.1224   -2.1953    0.0000 C   0  0
    0.0907   -1.3973    0.0000 C   0  0
   -0.4931   -0.8158    0.0000 C   0  0
   -1.2903   -1.0310    0.0000 C   0  0
   -1.5004   -1.8330    0.0000 C   0  0
   -0.9150   -2.4111    0.0000 N   0  0
    0.5500   -2.6791    0.0000 N   0  0
    1.2193   -2.1967    0.0000 C   0  0
    0.9625   -1.4084    0.0000 C   0  0
    1.9292   -2.6083    0.0000 O   0  0
    1.6750   -0.9917    0.0000 C   0  0
    1.4583   -0.1917    0.0000 O   0  0
    2.6917   -5.5208    0.0000 F   0  0
    3.3417   -2.3083    0.0000 C   0  0
 12  7  1  0
 13 14  1  0
 26 27  2  0
  6  1  1  0
 25 26  1  0
 27 20  1  0
 19 25  1  0
 25  7  1  0
  1  2  2  0
 26 28  1  0
 28  1  1  0
  3  4  2  0
 27 29  1  0
  7  8  2  0
 29 30  2  0
 29 13  1  0
  8  9  1  0
  3 31  1  0
 13 18  1  0
 14 15  1  0
 15 16  1  0
 16 17  1  0
 17 18  1  0
  4  5  1  0
  9 10  2  0
  6 32  1  0
 19 20  2  0
  2  3  1  0
 20 21  1  0
 10 11  1  0
 21 22  2  0
  5  6  2  0
 22 23  1  0
 11 12  2  0
 23 24  2  0
 24 19  1  0
M  END
>  <ID_NEW>
CPDRE1251

>  <pIC50>
6.402304814074487

$$$$

  SciTegic12180813492D

 33 37  0  0  0  0            999 V2000
    2.8821   -0.6832    0.0000 N   0  0
    3.1342    0.1041    0.0000 C   0  0
    2.5791    0.7137    0.0000 C   0  0
    1.7718    0.5361    0.0000 N   0  0
    1.5197   -0.2469    0.0000 C   0  0
    2.0748   -0.8608    0.0000 C   0  0
    3.4513   -4.1980    0.0000 C   0  0
    2.9032   -4.8136    0.0000 C   0  0
    3.1614   -5.5961    0.0000 C   0  0
    3.9677   -5.7631    0.0000 C   0  0
    4.5200   -5.1475    0.0000 C   0  0
    4.2618   -4.3650    0.0000 C   0  0
    0.9711   -2.3472    0.0000 C   0  0
    0.9786   -3.1722    0.0000 N   0  0
    1.6939   -3.5781    0.0000 C   0  0
    1.6872   -1.9281    0.0000 C   0  0
    2.4025   -2.3383    0.0000 C   0  0
    2.4059   -3.1633    0.0000 C   0  0
    3.1931   -3.4154    0.0000 N   0  0
    3.6728   -2.7434    0.0000 C   0  0
    3.1851   -2.0801    0.0000 C   0  0
    4.2259   -6.5498    0.0000 F   0  0
    3.4372   -1.2929    0.0000 C   0  0
    4.2445   -1.1194    0.0000 O   0  0
    4.7271   -1.4771    0.0000 C   0  0
    5.2563   -0.8399    0.0000 C   0  0
    6.0682   -0.9805    0.0000 C   0  0
    6.3549   -1.7541    0.0000 C   0  0
    5.8257   -2.3871    0.0000 C   0  0
    5.0139   -2.2466    0.0000 C   0  0
    6.1166   -3.1607    0.0000 C   0  0
    4.4888   -2.8839    0.0000 O   0  0
    7.1668   -1.8946    0.0000 F   0  0
 21 23  1  0
 12  7  1  0
 23 24  2  0
 23  1  1  0
  4  5  1  0
  5  6  1  0
  1  2  1  0
  1  6  1  0
  2  3  1  0
  3  4  1  0
  7  8  2  0
  9 10  2  0
 16 13  1  0
 17 18  1  0
 14 15  1  0
 15 18  2  0
 28 29  1  0
 26 27  1  0
 29 30  2  0
 30 25  1  0
 25 26  2  0
 29 31  1  0
 27 28  2  0
 30 32  1  0
 28 33  1  0
 20 32  1  0
 13 14  2  0
 17 16  2  0
 18 19  1  0
 19 20  1  0
 20 21  2  0
 21 17  1  0
 19  7  1  0
 10 22  1  0
 10 11  1  0
  8  9  1  0
 11 12  2  0
M  END
>  <ID_NEW>
CPDRE1252

>  <pIC50>
6.401209493236885

$$$$

  SciTegic12180813562D

 39 44  0  0  0  0            999 V2000
    3.9624   -6.1000    0.0000 N   0  0
    4.1749   -5.3000    0.0000 C   0  0
    3.5916   -4.7192    0.0000 C   0  0
    2.7925   -4.9328    0.0000 N   0  0
    2.5800   -5.7328    0.0000 C   0  0
    3.1666   -6.3192    0.0000 C   0  0
    4.2986   -7.4729    0.0000 C   0  0
    4.3037   -8.8184    0.0000 N   0  0
    4.7890   -8.1411    0.0000 C   0  0
    4.7243   -9.5375    0.0000 C   0  0
    5.5416   -9.5228    0.0000 C   0  0
    4.3109  -10.2427    0.0000 C   0  0
    5.9609  -10.2395    0.0000 C   0  0
    4.7301  -10.9594    0.0000 C   0  0
    5.5575  -10.9620    0.0000 C   0  0
    4.5509   -6.6875    0.0000 C   0  0
    5.3573   -6.5133    0.0000 O   0  0
    5.6124   -8.1375    0.0000 O   0  0
    3.5099   -8.5647    0.0000 C   0  0
    3.5090   -7.7317    0.0000 C   0  0
    2.7882   -7.3179    0.0000 N   0  0
    2.0680   -7.7359    0.0000 C   0  0
    2.0730   -8.5720    0.0000 C   0  0
    2.7943   -8.9821    0.0000 C   0  0
    6.4041   -8.3500    0.0000 C   0  0
    6.6136   -9.1436    0.0000 C   0  0
    7.4044   -9.3563    0.0000 C   0  0
    7.9852   -8.7766    0.0000 C   0  0
    7.7698   -7.9813    0.0000 C   0  0
    6.9793   -7.7724    0.0000 C   0  0
    6.0288   -9.7256    0.0000 C   0  0
    6.7636   -6.9761    0.0000 C   0  0
    4.9713   -5.0848    0.0000 C   0  0
    5.1831   -4.2874    0.0000 C   0  0
    5.9774   -4.0755    0.0000 C   0  0
    6.1893   -3.2789    0.0000 C   0  0
    5.6044   -2.6959    0.0000 C   0  0
    4.8045   -2.9148    0.0000 C   0  0
    4.5963   -3.7109    0.0000 C   0  0
 19  8  1  0
  8  9  1  0
  9  7  2  0
 10 11  1  0
 10 12  2  0
 10  8  1  0
 11 13  2  0
 12 14  1  0
 13 15  1  0
 14 15  2  0
  7 20  1  0
  7 16  1  0
 16 17  2  0
 16  1  1  0
  1  2  1  0
  1  6  1  0
  2  3  1  0
  3  4  1  0
  4  5  1  0
  5  6  1  0
  9 18  1  0
 19 20  2  0
 20 21  1  0
 21 22  2  0
 22 23  1  0
 23 24  2  0
 24 19  1  0
 18 25  1  0
 25 26  2  0
 26 27  1  0
 27 28  2  0
 28 29  1  0
 29 30  2  0
 30 25  1  0
 26 31  1  0
 30 32  1  0
  2 33  1  0
 33 34  1  0
 34 35  2  0
 35 36  1  0
 36 37  2  0
 37 38  1  0
 38 39  2  0
 39 34  1  0
M  END
>  <ID_NEW>
CPDRE1253

>  <pIC50>
6.377785977033704

$$$$

  SciTegic12180813522D

 34 38  0  0  0  0            999 V2000
    3.8336   -5.7591    0.0000 C   0  0
    3.4169   -6.4695    0.0000 C   0  0
    3.8236   -7.1834    0.0000 C   0  0
    4.6470   -7.1883    0.0000 C   0  0
    5.0619   -6.4732    0.0000 C   0  0
    4.6527   -5.7621    0.0000 C   0  0
    1.9561   -6.1377    0.0000 C   0  0
    1.2404   -6.5442    0.0000 C   0  0
    1.2356   -7.3653    0.0000 C   0  0
    1.9457   -7.7810    0.0000 C   0  0
    2.6621   -7.3695    0.0000 C   0  0
    2.6634   -6.5497    0.0000 C   0  0
    3.7836   -3.4605    0.0000 N   0  0
    4.1900   -4.1721    0.0000 C   0  0
    5.0076   -4.1748    0.0000 C   0  0
    5.4196   -3.4668    0.0000 N   0  0
    5.0082   -2.7545    0.0000 C   0  0
    4.1920   -2.7553    0.0000 C   0  0
    1.2901   -4.8328    0.0000 C   0  0
    1.5032   -4.0348    0.0000 C   0  0
    0.9194   -3.4533    0.0000 C   0  0
    0.1222   -3.6685    0.0000 C   0  0
   -0.0879   -4.4705    0.0000 N   0  0
    0.4975   -5.0486    0.0000 C   0  0
    1.9625   -5.3166    0.0000 N   0  0
    2.6318   -4.8342    0.0000 C   0  0
    2.3750   -4.0459    0.0000 C   0  0
    0.2792   -5.8417    0.0000 C   0  0
   -0.5208   -6.0542    0.0000 C   0  0
    3.4250   -5.0458    0.0000 O   0  0
    2.9583   -3.4583    0.0000 C   0  0
    2.7417   -2.6583    0.0000 O   0  0
    5.0583   -5.0417    0.0000 C   0  0
    3.4042   -7.8958    0.0000 F   0  0
 20 21  1  0
  9 10  2  0
 21 22  2  0
 22 23  1  0
 10 11  1  0
 23 24  2  0
 24 19  1  0
  4  5  1  0
 11 12  2  0
 26 27  2  0
 12  7  1  0
 25 26  1  0
 27 20  1  0
 19 25  1  0
 25  7  1  0
  1  2  2  0
 24 28  1  0
  5  6  2  0
 28 29  1  0
 13 14  1  0
 26 30  1  0
 30  1  1  0
  6  1  1  0
 27 31  1  0
 14 15  1  0
 31 32  2  0
 31 13  1  0
  6 33  1  0
 15 16  1  0
  3 34  1  0
  2  3  1  0
 16 17  1  0
  7  8  2  0
 17 18  1  0
 18 13  1  0
  8  9  1  0
 19 20  2  0
  3  4  2  0
M  END
>  <ID_NEW>
CPDRE1254

>  <pIC50>
6.373659632624957

$$$$

  SciTegic12180813522D

 42 47  0  0  0  0            999 V2000
    2.6444   -4.5250    0.0000 C   0  0
    2.6433   -5.3524    0.0000 C   0  0
    3.3581   -5.7653    0.0000 C   0  0
    3.3563   -4.1123    0.0000 C   0  0
    4.8616   -5.6078    0.0000 N   0  0
    5.3494   -4.9360    0.0000 C   0  0
    4.8611   -4.2646    0.0000 C   0  0
    4.0717   -4.5214    0.0000 C   0  0
    4.0719   -5.3516    0.0000 C   0  0
    5.1168   -6.3923    0.0000 C   0  0
    4.5625   -7.0040    0.0000 C   0  0
    4.8172   -7.7879    0.0000 C   0  0
    5.6250   -7.9598    0.0000 C   0  0
    6.1777   -7.3416    0.0000 C   0  0
    5.9201   -6.5600    0.0000 C   0  0
    1.9299   -4.1127    0.0000 O   0  0
    1.9285   -5.7643    0.0000 C   0  0
    5.1157   -3.4798    0.0000 C   0  0
    5.9226   -3.3080    0.0000 O   0  0
    4.5634   -2.8670    0.0000 N   0  0
    4.8210   -2.0827    0.0000 C   0  0
    4.2726   -1.4712    0.0000 C   0  0
    3.4645   -1.6390    0.0000 N   0  0
    3.2078   -2.4241    0.0000 C   0  0
    3.7591   -3.0413    0.0000 C   0  0
    6.1744   -4.9356    0.0000 C   0  0
    6.7542   -4.3458    0.0000 C   0  0
    7.5552   -4.5560    0.0000 C   0  0
    8.1348   -3.9670    0.0000 C   0  0
    7.9141   -3.1690    0.0000 C   0  0
    7.1085   -2.9633    0.0000 C   0  0
    6.5325   -3.5538    0.0000 C   0  0
    7.7741   -5.3515    0.0000 C   0  0
    8.9333   -4.1741    0.0000 F   0  0
    1.2143   -5.3512    0.0000 C   0  0
    1.2196   -4.5264    0.0000 C   0  0
    0.5064   -4.1134    0.0000 C   0  0
   -0.2095   -4.5253    0.0000 C   0  0
   -0.2075   -5.3546    0.0000 C   0  0
    0.5064   -5.7639    0.0000 C   0  0
    0.5093   -6.5889    0.0000 C   0  0
   -0.9208   -5.7690    0.0000 F   0  0
  3  9  2  0
  8  4  2  0
 20 25  1  0
 21 22  1  0
 22 23  1  0
 23 24  1  0
 24 25  1  0
  4  1  1  0
  8  9  1  0
  6  7  2  0
  5  6  1  0
  7  8  1  0
  9  5  1  0
  5 10  1  0
  6 26  1  0
 10 11  2  0
 26 27  1  0
 11 12  1  0
 27 28  2  0
 12 13  2  0
 28 29  1  0
 13 14  1  0
 29 30  2  0
 14 15  2  0
 30 31  1  0
 15 10  1  0
 31 32  2  0
 32 27  1  0
  1 16  1  0
 28 33  1  0
 29 34  1  0
 17 35  1  0
  2 17  1  0
 35 36  2  0
  7 18  1  0
 36 37  1  0
 18 19  2  0
 37 38  2  0
 18 20  1  0
 38 39  1  0
 20 21  1  0
 39 40  2  0
 40 35  1  0
  1  2  2  0
 40 41  1  0
  2  3  1  0
 39 42  1  0
M  END
>  <ID_NEW>
CPDRE1255

>  <pIC50>
6.368556230986828

$$$$

  SciTegic12180813102D

 31 35  0  0  0  0            999 V2000
   -3.4901   -0.4236    0.0000 N   0  0
   -3.0082    0.2479    0.0000 C   0  0
   -3.4980    0.9136    0.0000 C   0  0
   -3.2306   -1.2067    0.0000 C   0  0
   -3.2476    1.6997    0.0000 C   0  0
   -2.4417    1.8759    0.0000 O   0  0
   -3.7822   -1.8183    0.0000 N   0  0
   -3.5232   -2.6008    0.0000 C   0  0
   -2.7145   -2.7683    0.0000 C   0  0
   -2.1652   -2.1470    0.0000 C   0  0
   -2.4270   -1.3669    0.0000 C   0  0
   -3.8032    2.3095    0.0000 N   0  0
   -3.5494    3.0968    0.0000 C   0  0
   -4.1011    3.7053    0.0000 C   0  0
   -4.9083    3.5331    0.0000 N   0  0
   -5.1607    2.7467    0.0000 C   0  0
   -4.6061    2.1325    0.0000 C   0  0
   -2.1832    0.2528    0.0000 O   0  0
   -1.7665   -0.4592    0.0000 C   0  0
   -2.1765   -1.1750    0.0000 C   0  0
   -0.9380   -1.8843    0.0000 C   0  0
   -0.5275   -1.1675    0.0000 C   0  0
   -1.7633   -1.8849    0.0000 C   0  0
   -0.9424   -0.4514    0.0000 C   0  0
   -4.2776   -0.1728    0.0000 C   0  0
   -4.2792    0.6514    0.0000 C   0  0
   -4.9926    1.0603    0.0000 C   0  0
   -5.7049    0.6462    0.0000 C   0  0
   -5.6993   -0.1811    0.0000 C   0  0
   -4.9854   -0.5863    0.0000 C   0  0
   -0.5339    0.2653    0.0000 C   0  0
 13 14  1  0
 14 15  1  0
 15 16  1  0
 16 17  1  0
  2 18  1  0
 18 19  1  0
 19 20  2  0
 21 22  1  0
 19 24  1  0
 20 23  1  0
 23 21  2  0
 22 24  2  0
 25 26  2  0
 26 27  1  0
 24 31  1  0
 27 28  2  0
 28 29  1  0
 29 30  2  0
 30 25  1  0
 25  1  1  0
  1  2  1  0
  2  3  2  0
  3 26  1  0
  1  4  1  0
  3  5  1  0
  5  6  2  0
  4  7  2  0
  7  8  1  0
  8  9  2  0
  9 10  1  0
 10 11  2  0
 11  4  1  0
  5 12  1  0
 12 13  1  0
 12 17  1  0
M  END
>  <ID_NEW>
CPDRE1256

>  <pIC50>
6.355561410532161

$$$$

  SciTegic12180813102D

 31 35  0  0  0  0            999 V2000
   -5.7056    1.5292    0.0000 C   0  0
   -5.7068    0.7018    0.0000 C   0  0
   -4.9919    0.2889    0.0000 C   0  0
   -4.9937    1.9419    0.0000 C   0  0
   -4.2824    1.5291    0.0000 C   0  0
   -4.2776    0.7060    0.0000 C   0  0
   -3.4932    0.4561    0.0000 N   0  0
   -3.0132    1.1249    0.0000 C   0  0
   -3.5010    1.7880    0.0000 C   0  0
   -3.2507    2.5741    0.0000 C   0  0
   -2.4447    2.7504    0.0000 N   0  0
   -3.8063    3.1840    0.0000 O   0  0
   -1.8905    2.1373    0.0000 C   0  0
   -1.0877    2.3109    0.0000 C   0  0
   -0.8332    3.0960    0.0000 N   0  0
   -1.3880    3.7079    0.0000 C   0  0
   -2.1973    3.5347    0.0000 C   0  0
   -3.5000   -0.3667    0.0000 C   0  0
   -4.2183   -0.7703    0.0000 C   0  0
   -4.2254   -1.5924    0.0000 C   0  0
   -3.5157   -2.0105    0.0000 C   0  0
   -2.7973   -1.6006    0.0000 C   0  0
   -2.7937   -0.7799    0.0000 C   0  0
   -2.2208    0.9125    0.0000 S   0  0
   -1.4250    0.7000    0.0000 C   0  0
   -1.2135   -0.0973    0.0000 C   0  0
   -0.4185   -0.3099    0.0000 C   0  0
    0.1644    0.2734    0.0000 C   0  0
   -0.0532    1.0723    0.0000 C   0  0
   -0.8478    1.2812    0.0000 C   0  0
   -1.7975   -0.6800    0.0000 F   0  0
 18 19  2  0
 19 20  1  0
 20 21  2  0
 21 22  1  0
 22 23  2  0
 23 18  1  0
  8 24  1  0
 24 25  1  0
 25 26  2  0
 26 27  1  0
 27 28  2  0
 28 29  1  0
 29 30  2  0
 30 25  1  0
 26 31  1  0
  1  2  2  0
  2  3  1  0
  3  6  2  0
  5  4  2  0
  4  1  1  0
  5  6  1  0
  6  7  1  0
  7  8  1  0
  8  9  2  0
  9  5  1  0
  9 10  1  0
 10 11  1  0
 10 12  2  0
 11 13  1  0
 11 17  1  0
 13 14  1  0
 14 15  1  0
 15 16  1  0
 16 17  1  0
  7 18  1  0
M  END
>  <ID_NEW>
CPDRE1257

>  <pIC50>
6.350665141287858

$$$$

  -MTS-   10172316392D 0   0.00000     0.00000     0

 34 38  0  0  1  0  0  0  0  0999 V2000
    9.2450   -4.5400    0.0000 C   0  0  0  0  0  0  0  0  0  0  0  0
    9.4350   -5.2600    0.0000 C   0  0  0  0  0  0  0  0  0  0  0  0
   10.1520   -5.4540    0.0000 C   0  0  0  0  0  0  0  0  0  0  0  0
   10.6790   -4.9290    0.0000 C   0  0  0  0  0  0  0  0  0  0  0  0
   10.4850   -4.2070    0.0000 C   0  0  0  0  0  0  0  0  0  0  0  0
    9.7680   -4.0170    0.0000 C   0  0  0  0  0  0  0  0  0  0  0  0
    7.0000   -2.7420    0.0000 N   0  0  0  0  0  0  0  0  0  0  0  0
    6.9960   -1.9870    0.0000 C   0  0  0  0  0  0  0  0  0  0  0  0
    6.3440   -1.6160    0.0000 C   0  0  1  0  0  0  0  0  0  0  0  0
    5.6930   -1.9950    0.0000 N   0  0  0  0  0  0  0  0  0  0  0  0
    5.6970   -2.7490    0.0000 C   0  0  0  0  0  0  0  0  0  0  0  0
    6.3530   -3.1240    0.0000 C   0  0  0  0  0  0  0  0  0  0  0  0
    5.4630   -4.5530    0.0000 C   0  0  0  0  0  0  0  0  0  0  0  0
    5.5780   -5.2920    0.0000 C   0  0  0  0  0  0  0  0  0  0  0  0
    6.2780   -5.5640    0.0000 C   0  0  0  0  0  0  0  0  0  0  0  0
    6.0460   -4.0820    0.0000 N   0  0  0  0  0  0  0  0  0  0  0  0
    7.4130   -4.0090    0.0000 C   0  0  0  0  0  0  0  0  0  0  0  0
    6.7460   -4.3510    0.0000 C   0  0  0  0  0  0  0  0  0  0  0  0
    6.8620   -5.0940    0.0000 C   0  0  0  0  0  0  0  0  0  0  0  0
    7.6010   -5.2110    0.0000 N   0  0  0  0  0  0  0  0  0  0  0  0
    7.9430   -4.5430    0.0000 C   0  0  0  0  0  0  0  0  0  0  0  0
    7.9430   -5.8820    0.0000 C   0  0  0  0  0  0  0  0  0  0  0  0
    7.5320   -6.5080    0.0000 C   0  0  0  0  0  0  0  0  0  0  0  0
    8.6900   -5.9190    0.0000 C   0  0  0  0  0  0  0  0  0  0  0  0
    7.8730   -7.1750    0.0000 C   0  0  0  0  0  0  0  0  0  0  0  0
    9.0320   -6.5860    0.0000 C   0  0  0  0  0  0  0  0  0  0  0  0
    8.6210   -7.2140    0.0000 C   0  0  0  0  0  0  0  0  0  0  0  0
    7.5330   -3.2740    0.0000 C   0  0  0  0  0  0  0  0  0  0  0  0
    8.2340   -3.0000    0.0000 O   0  0  0  0  0  0  0  0  0  0  0  0
    6.5330   -0.8870    0.0000 C   0  0  0  0  0  0  0  0  0  0  0  0
    7.1830   -0.5080    0.0000 C   0  0  0  0  0  0  0  0  0  0  0  0
    8.5920   -4.1620    0.0000 O   0  0  0  0  0  0  0  0  0  0  0  0
    9.5760   -3.3010    0.0000 C   0  0  0  0  0  0  0  0  0  0  0  0
    8.9080   -5.7850    0.0000 C   0  0  0  0  0  0  0  0  0  0  0  0
  1  2  2  0  0  0  0
  3  4  2  0  0  0  0
  4  5  1  0  0  0  0
 25 27  2  0  0  0  0
 26 27  1  0  0  0  0
 16 13  2  0  0  0  0
 18 19  2  0  0  0  0
 14 15  2  0  0  0  0
 15 19  1  0  0  0  0
 13 14  1  0  0  0  0
 18 16  1  0  0  0  0
 17 18  1  0  0  0  0
 17 28  1  0  0  0  0
 28 29  2  0  0  0  0
 19 20  1  0  0  0  0
 20 21  1  0  0  0  0
 21 17  2  0  0  0  0
 22 23  2  0  0  0  0
 22 24  1  0  0  0  0
 22 20  1  0  0  0  0
 28  7  1  0  0  0  0
  9 10  1  0  0  0  0
 10 11  1  0  0  0  0
 11 12  1  0  0  0  0
  7  8  1  0  0  0  0
  7 12  1  0  0  0  0
  8  9  1  0  0  0  0
 23 25  1  0  0  0  0
  9 30  1  1  0  0  0
 24 26  2  0  0  0  0
 30 31  1  0  0  0  0
  2  3  1  0  0  0  0
 21 32  1  0  0  0  0
 32  1  1  0  0  0  0
  5  6  2  0  0  0  0
  6 33  1  0  0  0  0
  6  1  1  0  0  0  0
  2 34  1  0  0  0  0
M  END
>  <ID_NEW>
CPDRE1258

>  <pIC50>
6.341988603342887

$$$$

  SciTegic12180813082D

 30 34  0  0  0  0            999 V2000
   -5.7056    0.3751    0.0000 C   0  0
   -5.7068   -0.4523    0.0000 C   0  0
   -4.9920   -0.8652    0.0000 C   0  0
   -4.9938    0.7878    0.0000 C   0  0
   -4.2784    0.3787    0.0000 C   0  0
   -4.2736   -0.4477    0.0000 C   0  0
   -3.4861   -0.6986    0.0000 N   0  0
   -3.0041   -0.0271    0.0000 C   0  0
   -3.4939    0.6386    0.0000 C   0  0
   -3.2266   -1.4817    0.0000 C   0  0
   -3.7781   -2.0933    0.0000 C   0  0
   -3.5192   -2.8758    0.0000 C   0  0
   -2.7104   -3.0432    0.0000 C   0  0
   -2.1611   -2.4220    0.0000 C   0  0
   -2.4230   -1.6419    0.0000 C   0  0
   -3.2436    1.4247    0.0000 C   0  0
   -2.4376    1.6010    0.0000 O   0  0
   -3.7992    2.0346    0.0000 N   0  0
   -3.5468    2.8176    0.0000 C   0  0
   -4.0985    3.4261    0.0000 C   0  0
   -4.9057    3.2539    0.0000 N   0  0
   -5.1582    2.4675    0.0000 C   0  0
   -4.6035    1.8533    0.0000 C   0  0
   -2.1791   -0.0222    0.0000 S   0  0
   -1.7624   -0.7343    0.0000 C   0  0
   -2.1733   -1.4498    0.0000 C   0  0
   -1.7573   -2.1614    0.0000 C   0  0
   -0.9314   -2.1570    0.0000 C   0  0
   -0.5233   -1.4351    0.0000 C   0  0
   -0.9417   -0.7265    0.0000 C   0  0
 22 23  1  0
  8 24  1  0
 24 25  1  0
 25 26  2  0
 26 27  1  0
 27 28  2  0
 28 29  1  0
 29 30  2  0
 30 25  1  0
  1  2  2  0
  2  3  1  0
  3  6  2  0
  5  4  2  0
  4  1  1  0
  5  6  1  0
  6  7  1  0
  7  8  1  0
  8  9  2  0
  9  5  1  0
  7 10  1  0
 10 11  2  0
 11 12  1  0
 12 13  2  0
 13 14  1  0
 14 15  2  0
 15 10  1  0
  9 16  1  0
 16 17  2  0
 16 18  1  0
 18 19  1  0
 18 23  1  0
 19 20  1  0
 20 21  1  0
 21 22  1  0
M  END
>  <ID_NEW>
CPDRE1259

>  <pIC50>
6.329754146925875

$$$$

  SciTegic12180813472D

 34 38  0  0  0  0            999 V2000
   -5.0572    1.0720    0.0000 C   0  0
   -5.7055    0.6006    0.0000 C   0  0
   -5.6221   -0.1955    0.0000 C   0  0
   -4.8944   -0.5246    0.0000 C   0  0
   -4.3254    0.7429    0.0000 C   0  0
   -4.2419   -0.0533    0.0000 C   0  0
   -3.4586   -0.2218    0.0000 N   0  0
   -3.0564    0.4718    0.0000 C   0  0
   -3.5958    1.0674    0.0000 C   0  0
   -3.1341   -0.9514    0.0000 C   0  0
   -3.6053   -1.5969    0.0000 C   0  0
   -3.2808   -2.3307    0.0000 C   0  0
   -2.4851   -2.4150    0.0000 C   0  0
   -2.0139   -1.7695    0.0000 N   0  0
   -2.3384   -1.0357    0.0000 C   0  0
   -3.4273    1.8508    0.0000 C   0  0
   -2.6624    2.0994    0.0000 O   0  0
   -2.1606   -3.1488    0.0000 O   0  0
   -1.3649   -3.2331    0.0000 C   0  0
   -4.0195    2.3896    0.0000 N   0  0
   -3.8510    3.1688    0.0000 C   0  0
   -4.4473    3.7077    0.0000 C   0  0
   -5.2081    3.4591    0.0000 N   0  0
   -5.3765    2.6799    0.0000 C   0  0
   -4.7802    2.1410    0.0000 C   0  0
   -1.8110    1.0777    0.0000 C   0  0
   -1.0107    1.0206    0.0000 C   0  0
   -2.1622    1.7978    0.0000 C   0  0
   -2.2603    0.4147    0.0000 O   0  0
   -0.5615    1.6836    0.0000 C   0  0
   -0.6595    0.3004    0.0000 C   0  0
   -1.7088    2.4608    0.0000 C   0  0
   -0.9127    2.4036    0.0000 C   0  0
   -2.0600    3.1810    0.0000 F   0  0
 20 21  1  0
 20 25  1  0
 21 22  1  0
 22 23  1  0
 23 24  1  0
 24 25  1  0
  6  7  1  0
  7  8  1  0
  8  9  2  0
  9  5  1  0
  7 10  1  0
 10 11  2  0
 11 12  1  0
 26 27  2  0
 26 28  1  0
 26 29  1  0
 27 30  1  0
 27 31  1  0
 28 32  2  0
 30 33  2  0
 32 34  1  0
 32 33  1  0
  8 29  1  0
 12 13  2  0
 13 14  1  0
 14 15  2  0
 15 10  1  0
  5  1  1  0
  1  2  2  0
  2  3  1  0
  3  4  2  0
  4  6  1  0
  5  6  2  0
  9 16  1  0
 16 17  2  0
 13 18  1  0
 18 19  1  0
 16 20  1  0
M  END
>  <ID_NEW>
CPDRE1260

>  <pIC50>
6.3223930472795065

$$$$

  SciTegic12180813102D

 31 35  0  0  0  0            999 V2000
   -5.7047    0.7439    0.0000 C   0  0
   -5.7036    0.0273    0.0000 C   0  0
   -5.0770   -0.3234    0.0000 C   0  0
   -5.0875    1.1057    0.0000 C   0  0
   -4.4651    0.7550    0.0000 C   0  0
   -4.4556    0.0383    0.0000 C   0  0
   -3.7749   -0.1788    0.0000 N   0  0
   -3.3542    0.4052    0.0000 C   0  0
   -3.7844    0.9814    0.0000 C   0  0
   -3.5443   -0.8553    0.0000 C   0  0
   -4.0211   -1.3958    0.0000 C   0  0
   -3.7947   -2.0764    0.0000 C   0  0
   -3.0914   -2.2167    0.0000 C   0  0
   -2.6144   -1.6804    0.0000 C   0  0
   -2.8451   -0.9997    0.0000 C   0  0
   -3.5672    1.6664    0.0000 C   0  0
   -2.8695    1.8206    0.0000 O   0  0
   -4.0560    2.1969    0.0000 N   0  0
   -3.8387    2.8777    0.0000 C   0  0
   -4.3233    3.4082    0.0000 C   0  0
   -5.0251    3.2538    0.0000 N   0  0
   -5.2382    2.5689    0.0000 C   0  0
   -4.7536    2.0384    0.0000 C   0  0
   -1.4874    0.7229    0.0000 C   0  0
   -1.0295    1.2766    0.0000 C   0  0
   -2.1919    0.8409    0.0000 C   0  0
   -1.2803    1.9480    0.0000 C   0  0
   -2.4427    1.5165    0.0000 C   0  0
   -2.6497    0.2914    0.0000 O   0  0
   -1.9890    2.0660    0.0000 C   0  0
   -0.8234    2.5025    0.0000 F   0  0
 18 23  1  0
 19 20  1  0
 20 21  1  0
 21 22  1  0
 22 23  1  0
  1  2  2  0
  2  3  1  0
  3  6  2  0
  5  4  2  0
  4  1  1  0
  5  6  1  0
 24 25  1  0
 24 26  2  0
 25 27  2  0
 27 31  1  0
 26 28  1  0
 26 29  1  0
 27 30  1  0
 28 30  2  0
  8 29  1  0
  6  7  1  0
  7  8  1  0
  8  9  2  0
  9  5  1  0
  7 10  1  0
 10 11  2  0
 11 12  1  0
 12 13  2  0
 13 14  1  0
 14 15  2  0
 15 10  1  0
  9 16  1  0
 16 17  2  0
 16 18  1  0
 18 19  1  0
M  END
>  <ID_NEW>
CPDRE1261

>  <pIC50>
6.313363730737706

$$$$

  -MTS-   10172316392D 0   0.00000     0.00000     0

 34 38  0  0  1  0  0  0  0  0999 V2000
    9.9390   -5.3970    0.0000 C   0  0  0  0  0  0  0  0  0  0  0  0
    9.6870   -6.1020    0.0000 C   0  0  0  0  0  0  0  0  0  0  0  0
   10.1650   -6.6760    0.0000 C   0  0  0  0  0  0  0  0  0  0  0  0
   10.9000   -6.5470    0.0000 C   0  0  0  0  0  0  0  0  0  0  0  0
   11.1610   -5.8420    0.0000 C   0  0  0  0  0  0  0  0  0  0  0  0
   10.6820   -5.2670    0.0000 C   0  0  0  0  0  0  0  0  0  0  0  0
    7.5510   -4.4470    0.0000 C   0  0  0  0  0  0  0  0  0  0  0  0
    7.5530   -5.1970    0.0000 N   0  0  0  0  0  0  0  0  0  0  0  0
    8.2640   -5.4290    0.0000 C   0  0  0  0  0  0  0  0  0  0  0  0
    8.7100   -4.8250    0.0000 C   0  0  0  0  0  0  0  0  0  0  0  0
    8.2700   -4.2140    0.0000 C   0  0  0  0  0  0  0  0  0  0  0  0
    6.2580   -4.4450    0.0000 C   0  0  0  0  0  0  0  0  0  0  0  0
    6.9080   -4.0710    0.0000 C   0  0  0  0  0  0  0  0  0  0  0  0
    9.4600   -4.8220    0.0000 C   0  0  0  0  0  0  0  0  0  0  0  0
    8.4970   -3.5010    0.0000 C   0  0  0  0  0  0  0  0  0  0  0  0
    8.0000   -2.9430    0.0000 O   0  0  0  0  0  0  0  0  0  0  0  0
   10.9350   -4.5660    0.0000 C   0  0  0  0  0  0  0  0  0  0  0  0
   11.9000   -5.7160    0.0000 F   0  0  0  0  0  0  0  0  0  0  0  0
    6.2510   -5.1950    0.0000 C   0  0  0  0  0  0  0  0  0  0  0  0
    6.9020   -5.5710    0.0000 C   0  0  0  0  0  0  0  0  0  0  0  0
    8.4980   -6.1430    0.0000 C   0  0  0  0  0  0  0  0  0  0  0  0
    7.9940   -6.6990    0.0000 C   0  0  0  0  0  0  0  0  0  0  0  0
    8.2280   -7.4130    0.0000 C   0  0  0  0  0  0  0  0  0  0  0  0
    8.9610   -7.5680    0.0000 C   0  0  0  0  0  0  0  0  0  0  0  0
    9.4640   -7.0130    0.0000 C   0  0  0  0  0  0  0  0  0  0  0  0
    9.2310   -6.2980    0.0000 C   0  0  0  0  0  0  0  0  0  0  0  0
    5.6060   -4.0690    0.0000 Br  0  0  0  0  0  0  0  0  0  0  0  0
   10.7030   -3.0360    0.0000 N   0  0  0  0  0  0  0  0  0  0  0  0
   10.2010   -2.4760    0.0000 C   0  0  0  0  0  0  0  0  0  0  0  0
   10.4680   -3.7490    0.0000 C   0  0  2  0  0  0  0  0  0  0  0  0
    9.4690   -2.6360    0.0000 C   0  0  0  0  0  0  0  0  0  0  0  0
    9.7350   -3.9020    0.0000 C   0  0  0  0  0  0  0  0  0  0  0  0
    9.2340   -3.3440    0.0000 N   0  0  0  0  0  0  0  0  0  0  0  0
   10.9680   -4.3100    0.0000 C   0  0  0  0  0  0  0  0  0  0  0  0
 29 31  1  0  0  0  0
 30 32  1  0  0  0  0
 31 33  1  0  0  0  0
 32 33  1  0  0  0  0
 15 33  1  0  0  0  0
  1  2  2  0  0  0  0
 11 15  1  0  0  0  0
  3  4  2  0  0  0  0
 15 16  2  0  0  0  0
 30 34  1  1  0  0  0
  4  5  1  0  0  0  0
  2  3  1  0  0  0  0
  6 17  1  0  0  0  0
  8  9  1  0  0  0  0
  5 18  1  0  0  0  0
  9 10  2  0  0  0  0
 10 11  1  0  0  0  0
 19 20  2  0  0  0  0
 12 19  1  0  0  0  0
 20  8  1  0  0  0  0
  9 21  1  0  0  0  0
 11  7  2  0  0  0  0
 21 22  2  0  0  0  0
  5  6  2  0  0  0  0
 22 23  1  0  0  0  0
  6  1  1  0  0  0  0
 23 24  2  0  0  0  0
  7 13  1  0  0  0  0
 24 25  1  0  0  0  0
 13 12  2  0  0  0  0
 25 26  2  0  0  0  0
 26 21  1  0  0  0  0
 12 27  1  0  0  0  0
  7  8  1  0  0  0  0
 10 14  1  0  0  0  0
 14  1  1  0  0  0  0
 28 29  1  0  0  0  0
 28 30  1  0  0  0  0
M  END
>  <ID_NEW>
CPDRE1262

>  <pIC50>
6.307153080722769

$$$$

  SciTegic12180813452D

 31 35  0  0  0  0            999 V2000
    7.2294   -3.9689    0.0000 C   0  0
    7.6358   -4.6804    0.0000 C   0  0
    8.4534   -4.6832    0.0000 C   0  0
    8.8655   -3.9751    0.0000 C   0  0
    8.4540   -3.2629    0.0000 C   0  0
    7.6378   -3.2636    0.0000 C   0  0
    4.7500   -1.9292    0.0000 N   0  0
    4.9625   -1.1292    0.0000 C   0  0
    4.3792   -0.5484    0.0000 C   0  0
    3.5801   -0.7620    0.0000 N   0  0
    3.3676   -1.5620    0.0000 C   0  0
    3.9542   -2.1484    0.0000 C   0  0
    5.0974   -4.6402    0.0000 N   0  0
    5.5793   -3.9687    0.0000 C   0  0
    5.0895   -3.3030    0.0000 C   0  0
    5.3569   -5.4233    0.0000 C   0  0
    4.8053   -6.0349    0.0000 C   0  0
    5.0643   -6.8174    0.0000 C   0  0
    5.8730   -6.9849    0.0000 C   0  0
    6.4223   -6.3636    0.0000 C   0  0
    6.1605   -5.5835    0.0000 C   0  0
    5.3399   -2.5169    0.0000 C   0  0
    6.1458   -2.3407    0.0000 O   0  0
    6.4042   -3.9667    0.0000 O   0  0
    4.3099   -4.3894    0.0000 C   0  0
    4.3084   -3.5651    0.0000 C   0  0
    3.5950   -3.1561    0.0000 C   0  0
    2.8825   -3.5702    0.0000 C   0  0
    2.8880   -4.3976    0.0000 N   0  0
    3.6020   -4.8029    0.0000 C   0  0
    7.2208   -2.5458    0.0000 C   0  0
  7  8  1  0
 25 26  2  0
  7 12  1  0
 26 27  1  0
 27 28  2  0
  8  9  1  0
 28 29  1  0
 29 30  2  0
 30 25  1  0
  6 31  1  0
 14 24  1  0
 24  1  1  0
  4  5  1  0
  2  3  1  0
  5  6  2  0
  6  1  1  0
  1  2  2  0
  3  4  2  0
 25 13  1  0
 13 14  1  0
 14 15  2  0
 15 26  1  0
 13 16  1  0
 16 17  2  0
 17 18  1  0
 18 19  2  0
 19 20  1  0
 20 21  2  0
 21 16  1  0
 15 22  1  0
 22 23  2  0
 22  7  1  0
  9 10  1  0
 10 11  1  0
 11 12  1  0
M  END
>  <ID_NEW>
CPDRE1263

>  <pIC50>
6.306273051076352

$$$$

  SciTegic12180813472D

 33 37  0  0  0  0            999 V2000
    3.0348   -3.8530    0.0000 C   0  0
    2.9727   -4.6701    0.0000 C   0  0
    3.6483   -5.1305    0.0000 C   0  0
    4.3863   -4.7750    0.0000 C   0  0
    4.4447   -3.9545    0.0000 C   0  0
    3.7682   -3.4978    0.0000 C   0  0
    2.1265   -0.7708    0.0000 N   0  0
    2.5853   -0.0852    0.0000 C   0  0
    2.2229    0.6509    0.0000 C   0  0
    1.4005    0.7077    0.0000 N   0  0
    0.9417    0.0220    0.0000 C   0  0
    1.3052   -0.7204    0.0000 C   0  0
    0.8869   -3.2154    0.0000 N   0  0
    1.6681   -2.9282    0.0000 C   0  0
    1.6320   -2.1000    0.0000 C   0  0
    0.6641   -4.0153    0.0000 C   0  0
   -0.1412   -4.2138    0.0000 C   0  0
   -0.3675   -5.0105    0.0000 C   0  0
    0.2119   -5.6048    0.0000 C   0  0
    1.0207   -5.3968    0.0000 C   0  0
    1.2433   -4.6006    0.0000 C   0  0
    2.2856   -1.5882    0.0000 C   0  0
    3.0576   -1.8926    0.0000 O   0  0
    0.3765   -2.5696    0.0000 C   0  0
    0.8381   -1.8795    0.0000 C   0  0
    0.4711   -1.1367    0.0000 C   0  0
   -0.3573   -1.0830    0.0000 C   0  0
   -0.8173   -1.7781    0.0000 C   0  0
   -0.4477   -2.5179    0.0000 N   0  0
    2.3525   -3.3887    0.0000 O   0  0
    3.8250   -2.6696    0.0000 C   0  0
    5.1813   -3.5872    0.0000 F   0  0
    3.5867   -5.9442    0.0000 F   0  0
 24 13  1  0
 24 25  2  0
 13 14  1  0
 25 26  1  0
 14 15  2  0
 26 27  2  0
 15 25  1  0
 27 28  1  0
 13 16  1  0
 28 29  2  0
 29 24  1  0
 22  7  1  0
  9 10  1  0
 10 11  1  0
 11 12  1  0
  7  8  1  0
  7 12  1  0
  8  9  1  0
 14 30  1  0
 30  1  1  0
  4  5  1  0
  6 31  1  0
  2  3  1  0
  5 32  1  0
  5  6  2  0
  3 33  1  0
  6  1  1  0
  1  2  2  0
  3  4  2  0
 16 17  2  0
 17 18  1  0
 18 19  2  0
 19 20  1  0
 20 21  2  0
 21 16  1  0
 15 22  1  0
 22 23  2  0
M  END
>  <ID_NEW>
CPDRE1264

>  <pIC50>
6.297569463554474

$$$$

  SciTegic12180813492D

 33 37  0  0  0  0            999 V2000
   -1.4257   -1.4255    0.0000 C   0  0
   -0.6353   -1.6700    0.0000 C   0  0
   -0.0304   -1.1084    0.0000 C   0  0
   -0.2146   -0.3020    0.0000 C   0  0
   -1.0092   -0.0604    0.0000 C   0  0
   -1.6107   -0.6237    0.0000 C   0  0
   -2.3999   -0.3833    0.0000 O   0  0
   -2.0301   -1.9871    0.0000 C   0  0
    0.3890    0.2604    0.0000 F   0  0
   -3.7855   -1.2752    0.0000 C   0  0
   -4.5012   -1.6817    0.0000 C   0  0
   -4.5060   -2.5028    0.0000 C   0  0
   -3.7959   -2.9185    0.0000 C   0  0
   -3.0795   -2.5070    0.0000 C   0  0
   -3.0782   -1.6872    0.0000 C   0  0
   -2.9999    2.2042    0.0000 N   0  0
   -2.4166    2.7917    0.0000 C   0  0
   -2.6325    3.5862    0.0000 C   0  0
   -3.4318    3.7997    0.0000 N   0  0
   -4.0151    3.2122    0.0000 C   0  0
   -3.7992    2.4112    0.0000 C   0  0
   -4.4515    0.0297    0.0000 C   0  0
   -4.2384    0.8277    0.0000 C   0  0
   -4.8222    1.4092    0.0000 C   0  0
   -5.6194    1.1940    0.0000 N   0  0
   -5.8295    0.3920    0.0000 C   0  0
   -5.2441   -0.1861    0.0000 C   0  0
   -3.7791   -0.4541    0.0000 N   0  0
   -3.1098    0.0283    0.0000 C   0  0
   -3.3666    0.8166    0.0000 C   0  0
   -2.7833    1.4042    0.0000 C   0  0
   -1.9583    1.4042    0.0000 O   0  0
   -3.8041   -3.7417    0.0000 F   0  0
  4  5  1  0
  2  3  1  0
  5  6  2  0
  6  1  1  0
  1  2  2  0
  6  7  1  0
  3  4  2  0
  1  8  1  0
  4  9  1  0
 25 26  1  0
 13 14  1  0
 26 27  2  0
 27 22  1  0
 11 12  1  0
 14 15  2  0
 29 30  2  0
 16 21  1  0
 28 29  1  0
 30 23  1  0
 22 28  1  0
 17 18  1  0
 30 31  1  0
 18 19  1  0
 29  7  1  0
 28 10  1  0
 19 20  1  0
 31 32  2  0
 31 16  1  0
 20 21  1  0
 13 33  1  0
 15 10  1  0
 16 17  1  0
 22 23  2  0
 10 11  2  0
 23 24  1  0
 12 13  2  0
 24 25  2  0
M  END
>  <ID_NEW>
CPDRE1265

>  <pIC50>
6.289882634888183

$$$$

  SciTegic12180813512D

 31 35  0  0  0  0            999 V2000
   10.1049   -4.7414    0.0000 C   0  0
   10.8153   -5.1540    0.0000 C   0  0
   11.5257   -4.7451    0.0000 C   0  0
   11.5269   -3.9239    0.0000 C   0  0
   10.8119   -3.5131    0.0000 C   0  0
   10.1044   -3.9243    0.0000 C   0  0
    6.5655   -5.1260    0.0000 C   0  0
    6.9199   -3.5130    0.0000 N   0  0
    6.1356   -3.7657    0.0000 C   0  0
    5.9543   -4.5680    0.0000 C   0  0
    7.3539   -4.8775    0.0000 C   0  0
    7.5311   -4.0710    0.0000 C   0  0
    8.3532   -3.9922    0.0000 C   0  0
    8.6821   -4.7463    0.0000 C   0  0
    8.0639   -5.2957    0.0000 N   0  0
    8.1427   -6.1178    0.0000 C   0  0
    8.7672   -3.2822    0.0000 C   0  0
    8.3604   -2.5650    0.0000 N   0  0
    9.5922   -3.2853    0.0000 O   0  0
    8.8959   -6.4591    0.0000 C   0  0
    8.9746   -7.2812    0.0000 C   0  0
    8.3044   -7.7578    0.0000 C   0  0
    7.5513   -7.4207    0.0000 C   0  0
    7.4725   -6.5985    0.0000 C   0  0
    8.7786   -1.8509    0.0000 C   0  0
    8.3719   -1.1337    0.0000 C   0  0
    7.5469   -1.1265    0.0000 N   0  0
    7.1287   -1.8406    0.0000 C   0  0
    7.5355   -2.5578    0.0000 C   0  0
    9.3917   -5.1583    0.0000 O   0  0
   10.8084   -5.9750    0.0000 F   0  0
  2  3  1  0
  5  6  2  0
  6  1  1  0
  1  2  2  0
  3  4  2  0
 14 15  1  0
 15 11  1  0
 15 16  1  0
 13 17  1  0
 17 18  1  0
 17 19  2  0
 16 20  2  0
 20 21  1  0
 21 22  2  0
 22 23  1  0
 23 24  2  0
 24 16  1  0
 18 25  1  0
 18 29  1  0
 25 26  1  0
 26 27  1  0
 27 28  1  0
 28 29  1  0
 11  7  1  0
  7 10  2  0
  9  8  2  0
  8 12  1  0
  9 10  1  0
 11 12  2  0
 12 13  1  0
 13 14  2  0
 14 30  1  0
 30  1  1  0
  4  5  1  0
  2 31  1  0
M  END
>  <ID_NEW>
CPDRE1266

>  <pIC50>
6.289882634888183

$$$$

  SciTegic12180813512D

 33 37  0  0  0  0            999 V2000
    2.5436   -1.7752    0.0000 C   0  0
    1.8279   -2.1817    0.0000 C   0  0
    1.8231   -3.0028    0.0000 C   0  0
    2.5332   -3.4185    0.0000 C   0  0
    3.2496   -3.0070    0.0000 C   0  0
    3.2509   -2.1872    0.0000 C   0  0
    4.3378   -1.5966    0.0000 C   0  0
    3.9210   -2.3070    0.0000 C   0  0
    4.3278   -3.0209    0.0000 C   0  0
    5.1511   -3.0258    0.0000 C   0  0
    5.5660   -2.3107    0.0000 C   0  0
    5.1569   -1.5996    0.0000 C   0  0
    4.3417    0.6917    0.0000 N   0  0
    4.7500   -0.0208    0.0000 C   0  0
    5.5667   -0.0234    0.0000 C   0  0
    5.9812    0.6848    0.0000 N   0  0
    5.5729    1.3973    0.0000 C   0  0
    4.7500    1.4016    0.0000 C   0  0
    1.8776   -0.4703    0.0000 C   0  0
    2.0907    0.3277    0.0000 C   0  0
    1.5069    0.9092    0.0000 C   0  0
    0.7097    0.6940    0.0000 C   0  0
    0.4996   -0.1080    0.0000 N   0  0
    1.0850   -0.6861    0.0000 C   0  0
    2.5500   -0.9541    0.0000 N   0  0
    3.2193   -0.4717    0.0000 C   0  0
    2.9625    0.3166    0.0000 C   0  0
    0.8667   -1.4792    0.0000 Cl  0  0
    3.9292   -0.8833    0.0000 O   0  0
    3.5458    0.9042    0.0000 C   0  0
    3.1292    1.6208    0.0000 O   0  0
    5.7375   -1.0083    0.0000 C   0  0
    3.3333   -1.7167    0.0000 C   0  0
 19 20  2  0
  3  4  2  0
 20 21  1  0
  9 10  2  0
 21 22  2  0
 22 23  1  0
 10 11  1  0
 23 24  2  0
 24 19  1  0
  4  5  1  0
 11 12  2  0
 26 27  2  0
 12  7  1  0
 25 26  1  0
 27 20  1  0
 19 25  1  0
 25  1  1  0
 13 14  1  0
 24 28  1  0
  1  2  2  0
 26 29  1  0
 29  7  1  0
  5  6  2  0
 27 30  1  0
  6  1  1  0
 30 31  2  0
 30 13  1  0
  2  3  1  0
 12 32  1  0
  7  8  2  0
 13 18  1  0
 14 15  1  0
 15 16  1  0
 16 17  1  0
 17 18  1  0
  8  9  1  0
  8 33  1  0
M  END
>  <ID_NEW>
CPDRE1267

>  <pIC50>
6.286509456906057

$$$$

  SciTegic12180813472D

 31 35  0  0  0  0            999 V2000
    5.1750   -2.3667    0.0000 N   0  0
    5.8875   -1.9500    0.0000 C   0  0
    5.8829   -1.1292    0.0000 C   0  0
    5.1675   -0.7188    0.0000 N   0  0
    4.4550   -1.1355    0.0000 C   0  0
    4.4579   -1.9625    0.0000 C   0  0
    4.0478   -5.7002    0.0000 C   0  0
    3.3321   -6.1067    0.0000 C   0  0
    3.3273   -6.9278    0.0000 C   0  0
    4.0373   -7.3435    0.0000 C   0  0
    4.7538   -6.9320    0.0000 C   0  0
    4.7551   -6.1122    0.0000 C   0  0
    5.6448   -5.6048    0.0000 C   0  0
    5.0578   -6.1861    0.0000 C   0  0
    5.2681   -6.9830    0.0000 C   0  0
    6.0650   -7.1999    0.0000 C   0  0
    6.6515   -6.6135    0.0000 C   0  0
    6.4381   -5.8188    0.0000 C   0  0
    3.3818   -4.3953    0.0000 C   0  0
    3.5949   -3.5973    0.0000 C   0  0
    3.0111   -3.0158    0.0000 C   0  0
    2.2139   -3.2310    0.0000 N   0  0
    2.0038   -4.0330    0.0000 C   0  0
    2.5892   -4.6111    0.0000 C   0  0
    4.0542   -4.8791    0.0000 N   0  0
    4.7235   -4.3967    0.0000 C   0  0
    4.4667   -3.6084    0.0000 C   0  0
    5.4333   -4.8083    0.0000 C   0  0
    5.1792   -3.1917    0.0000 C   0  0
    5.8917   -3.6042    0.0000 O   0  0
    7.0208   -5.2292    0.0000 C   0  0
 21 22  2  0
  1  6  1  0
 22 23  1  0
 10 11  1  0
 23 24  2  0
 24 19  1  0
  2  3  1  0
 11 12  2  0
 26 27  2  0
 12  7  1  0
 25 26  1  0
 27 20  1  0
 19 25  1  0
 25  7  1  0
  3  4  1  0
 26 28  1  0
 28 13  1  0
  4  5  1  0
 27 29  1  0
 13 14  2  0
 29 30  2  0
 29  1  1  0
  5  6  1  0
 18 31  1  0
 14 15  1  0
 15 16  2  0
  1  2  1  0
 16 17  1  0
  7  8  2  0
 17 18  2  0
 18 13  1  0
  8  9  1  0
 19 20  2  0
 20 21  1  0
  9 10  2  0
M  END
>  <ID_NEW>
CPDRE1268

>  <pIC50>
6.2839966563652006

$$$$

  SciTegic12180813072D

 31 35  0  0  0  0            999 V2000
   -5.7056    0.3751    0.0000 C   0  0
   -5.7068   -0.4523    0.0000 C   0  0
   -4.9920   -0.8652    0.0000 C   0  0
   -4.9938    0.7878    0.0000 C   0  0
   -4.2784    0.3787    0.0000 C   0  0
   -4.2736   -0.4477    0.0000 C   0  0
   -3.4861   -0.6986    0.0000 N   0  0
   -3.0041   -0.0271    0.0000 C   0  0
   -3.4939    0.6386    0.0000 C   0  0
   -3.2266   -1.4817    0.0000 C   0  0
   -3.7781   -2.0933    0.0000 C   0  0
   -3.5192   -2.8758    0.0000 C   0  0
   -2.7104   -3.0432    0.0000 C   0  0
   -2.1611   -2.4220    0.0000 C   0  0
   -2.4230   -1.6419    0.0000 C   0  0
   -3.2436    1.4247    0.0000 C   0  0
   -2.4376    1.6010    0.0000 O   0  0
   -3.7992    2.0346    0.0000 N   0  0
   -3.5468    2.8176    0.0000 C   0  0
   -4.0985    3.4261    0.0000 C   0  0
   -4.9057    3.2539    0.0000 N   0  0
   -5.1582    2.4675    0.0000 C   0  0
   -4.6035    1.8533    0.0000 C   0  0
   -2.1791   -0.0222    0.0000 C   0  0
   -1.7624   -0.7343    0.0000 C   0  0
   -2.1733   -1.4498    0.0000 C   0  0
   -1.7573   -2.1614    0.0000 C   0  0
   -0.9314   -2.1570    0.0000 C   0  0
   -0.5233   -1.4351    0.0000 C   0  0
   -0.9417   -0.7265    0.0000 C   0  0
   -0.5361   -0.0081    0.0000 F   0  0
 14 15  2  0
 15 10  1  0
  9 16  1  0
 16 17  2  0
 16 18  1  0
 18 19  1  0
 18 23  1  0
 19 20  1  0
 20 21  1  0
 21 22  1  0
 22 23  1  0
  8 24  1  0
 24 25  1  0
 25 26  2  0
 26 27  1  0
 27 28  2  0
 28 29  1  0
 29 30  2  0
 30 25  1  0
 30 31  1  0
  1  2  2  0
  2  3  1  0
  3  6  2  0
  5  4  2  0
  4  1  1  0
  5  6  1  0
  6  7  1  0
  7  8  1  0
  8  9  2  0
  9  5  1  0
  7 10  1  0
 10 11  2  0
 11 12  1  0
 12 13  2  0
 13 14  1  0
M  END
>  <ID_NEW>
CPDRE1269

>  <pIC50>
6.283162276700475

$$$$

  SciTegic12180813462D

 34 38  0  0  0  0            999 V2000
   -4.2764    0.0876    0.0000 C   0  0
   -4.2776   -0.7398    0.0000 C   0  0
   -3.5628   -1.1527    0.0000 C   0  0
   -3.5646    0.5003    0.0000 C   0  0
   -2.8492    0.0912    0.0000 C   0  0
   -2.8444   -0.7352    0.0000 C   0  0
   -2.0569   -0.9861    0.0000 N   0  0
   -1.5749   -0.3146    0.0000 C   0  0
   -2.0647    0.3511    0.0000 C   0  0
   -1.7974   -1.7692    0.0000 C   0  0
   -2.3489   -2.3808    0.0000 C   0  0
   -2.0900   -3.1633    0.0000 C   0  0
   -1.2812   -3.3307    0.0000 C   0  0
   -0.7319   -2.7095    0.0000 C   0  0
   -0.9938   -1.9294    0.0000 C   0  0
   -1.8144    1.1372    0.0000 C   0  0
   -1.0084    1.3135    0.0000 O   0  0
   -2.3700    1.7471    0.0000 N   0  0
   -2.1176    2.5301    0.0000 C   0  0
   -2.6693    3.1386    0.0000 C   0  0
   -3.4765    2.9664    0.0000 N   0  0
   -3.7290    2.1800    0.0000 C   0  0
   -3.1743    1.5658    0.0000 C   0  0
   -0.7499   -0.3097    0.0000 C   0  0
   -0.0375   -0.7208    0.0000 C   0  0
   -0.0400   -1.5444    0.0000 C   0  0
    0.6715   -1.9553    0.0000 C   0  0
    1.3847   -1.5438    0.0000 C   0  0
    1.3818   -0.7171    0.0000 C   0  0
    0.6697   -0.3098    0.0000 C   0  0
    2.0947   -0.3019    0.0000 F   0  0
    0.6669    0.5152    0.0000 C   0  0
   -4.9910    0.5000    0.0000 O   0  0
   -5.7053    0.0873    0.0000 C   0  0
 14 15  2  0
 15 10  1  0
  9 16  1  0
 16 17  2  0
 16 18  1  0
 18 19  1  0
 18 23  1  0
 19 20  1  0
 20 21  1  0
 21 22  1  0
 22 23  1  0
  8 24  1  0
 24 25  1  0
 25 26  2  0
 26 27  1  0
 27 28  2  0
 28 29  1  0
 29 30  2  0
 30 25  1  0
 29 31  1  0
 30 32  1  0
  1 33  1  0
 33 34  1  0
  1  2  2  0
  2  3  1  0
  3  6  2  0
  5  4  2  0
  4  1  1  0
  5  6  1  0
  6  7  1  0
  7  8  1  0
  8  9  2  0
  9  5  1  0
  7 10  1  0
 10 11  2  0
 11 12  1  0
 12 13  2  0
 13 14  1  0
M  END
>  <ID_NEW>
CPDRE1270

>  <pIC50>
6.27490547891853

$$$$

  SciTegic12180813102D

 31 35  0  0  0  0            999 V2000
   -2.5318   -0.4236    0.0000 N   0  0
   -2.0499    0.2479    0.0000 C   0  0
   -2.5397    0.9136    0.0000 C   0  0
   -2.2723   -1.2067    0.0000 C   0  0
   -2.2893    1.6997    0.0000 C   0  0
   -1.4834    1.8759    0.0000 O   0  0
   -2.8239   -1.8183    0.0000 C   0  0
   -2.5649   -2.6008    0.0000 C   0  0
   -1.7562   -2.7683    0.0000 C   0  0
   -1.2069   -2.1470    0.0000 C   0  0
   -1.4687   -1.3669    0.0000 C   0  0
   -2.8449    2.3095    0.0000 N   0  0
   -2.5911    3.0968    0.0000 C   0  0
   -3.1428    3.7053    0.0000 C   0  0
   -3.9500    3.5331    0.0000 N   0  0
   -4.2024    2.7467    0.0000 C   0  0
   -3.6478    2.1325    0.0000 C   0  0
   -1.2249    0.2528    0.0000 O   0  0
   -0.8082   -0.4592    0.0000 C   0  0
   -1.2182   -1.1750    0.0000 C   0  0
    0.0203   -1.8843    0.0000 C   0  0
    0.4308   -1.1675    0.0000 C   0  0
   -0.8050   -1.8849    0.0000 C   0  0
    0.0159   -0.4514    0.0000 C   0  0
   -3.3193   -0.1728    0.0000 C   0  0
   -3.3209    0.6514    0.0000 C   0  0
   -4.0343    1.0603    0.0000 C   0  0
   -4.7466    0.6462    0.0000 C   0  0
   -4.7410   -0.1811    0.0000 C   0  0
   -4.0271   -0.5863    0.0000 C   0  0
   -5.4526   -0.5986    0.0000 Cl  0  0
  2 18  1  0
 18 19  1  0
 19 20  2  0
 21 22  1  0
 19 24  1  0
 20 23  1  0
 23 21  2  0
 22 24  2  0
 25 26  2  0
 26 27  1  0
 27 28  2  0
 28 29  1  0
 29 30  2  0
 30 25  1  0
 29 31  1  0
 25  1  1  0
  1  2  1  0
  2  3  2  0
  3 26  1  0
  1  4  1  0
  3  5  1  0
  5  6  2  0
  4  7  2  0
  7  8  1  0
  8  9  2  0
  9 10  1  0
 10 11  2  0
 11  4  1  0
  5 12  1  0
 12 13  1  0
 12 17  1  0
 13 14  1  0
 14 15  1  0
 15 16  1  0
 16 17  1  0
M  END
>  <ID_NEW>
CPDRE1271

>  <pIC50>
6.2660007134616125

$$$$

  SciTegic12180813492D

 34 38  0  0  0  0            999 V2000
    5.0277   -3.4958    0.0000 C   0  0
    5.0224   -4.3190    0.0000 C   0  0
    5.7315   -4.7334    0.0000 C   0  0
    6.4465   -4.3257    0.0000 C   0  0
    6.4478   -3.4993    0.0000 C   0  0
    5.7380   -3.0887    0.0000 C   0  0
    2.5584   -1.4292    0.0000 N   0  0
    2.5542   -0.6042    0.0000 C   0  0
    1.8416   -0.1976    0.0000 C   0  0
    1.1286   -0.6114    0.0000 N   0  0
    1.1328   -1.4364    0.0000 C   0  0
    1.8499   -1.8476    0.0000 C   0  0
    0.8153   -2.8959    0.0000 C   0  0
    0.8141   -3.7232    0.0000 C   0  0
    1.5290   -4.1361    0.0000 C   0  0
    1.5272   -2.4831    0.0000 N   0  0
    2.2425   -2.8922    0.0000 C   0  0
    2.2474   -3.7187    0.0000 C   0  0
    3.0349   -3.9695    0.0000 N   0  0
    3.5168   -3.2980    0.0000 C   0  0
    3.0270   -2.6323    0.0000 C   0  0
    3.2944   -4.7526    0.0000 C   0  0
    2.7428   -5.3642    0.0000 C   0  0
    3.0018   -6.1467    0.0000 C   0  0
    3.8105   -6.3142    0.0000 C   0  0
    4.3598   -5.6929    0.0000 C   0  0
    4.0980   -4.9128    0.0000 C   0  0
    3.2774   -1.8462    0.0000 C   0  0
    4.0833   -1.6700    0.0000 O   0  0
    0.0959   -2.4793    0.0000 O   0  0
   -0.6208   -2.8876    0.0000 C   0  0
    4.3125   -3.0792    0.0000 C   0  0
    5.7333   -2.2625    0.0000 C   0  0
    7.1583   -3.0792    0.0000 F   0  0
  4  5  1  0
  5  6  2  0
  6  1  1  0
  2  3  1  0
 16 13  1  0
 17 18  1  0
 18 19  1  0
 19 20  1  0
 20 21  2  0
 21 17  1  0
 19 22  1  0
 22 23  2  0
 23 24  1  0
 24 25  2  0
 25 26  1  0
 26 27  2  0
 27 22  1  0
 21 28  1  0
 28 29  2  0
 13 14  2  0
 14 15  1  0
 15 18  2  0
 28  7  1  0
 13 30  1  0
 17 16  2  0
 30 31  1  0
 11 12  1  0
  7  8  1  0
  7 12  1  0
  8  9  1  0
  9 10  1  0
 10 11  1  0
 20 32  1  0
 32  1  1  0
  3  4  2  0
  6 33  1  0
  1  2  2  0
  5 34  1  0
M  END
>  <ID_NEW>
CPDRE1272

>  <pIC50>
6.2262135550188065

$$$$

  SciTegic12180813072D

 32 36  0  0  0  0            999 V2000
   -5.8297    0.7647    0.0000 C   0  0
   -5.8286   -0.0602    0.0000 C   0  0
   -5.1062   -0.4609    0.0000 C   0  0
   -5.1167    1.1849    0.0000 C   0  0
   -4.4026    0.7800    0.0000 C   0  0
   -4.3889   -0.0450    0.0000 C   0  0
   -3.6082   -0.2955    0.0000 N   0  0
   -3.1250    0.3760    0.0000 C   0  0
   -3.6177    1.0397    0.0000 C   0  0
   -3.3401   -1.0761    0.0000 C   0  0
   -3.8919   -1.6958    0.0000 C   0  0
   -3.6280   -2.4806    0.0000 C   0  0
   -2.8206   -2.6417    0.0000 C   0  0
   -2.2727   -2.0262    0.0000 C   0  0
   -2.5368   -1.2414    0.0000 C   0  0
   -3.3672    1.8289    0.0000 C   0  0
   -2.5653    2.0039    0.0000 O   0  0
   -3.9310    2.4386    0.0000 N   0  0
   -3.6804    3.2235    0.0000 C   0  0
   -4.2400    3.8332    0.0000 C   0  0
   -5.0459    3.6538    0.0000 N   0  0
   -5.2924    2.8689    0.0000 C   0  0
   -4.7328    2.2551    0.0000 C   0  0
   -0.9749    0.7437    0.0000 C   0  0
   -0.4462    1.3808    0.0000 C   0  0
   -1.7836    0.8784    0.0000 C   0  0
   -0.7345    2.1522    0.0000 C   0  0
   -2.0719    1.6540    0.0000 C   0  0
   -2.3122    0.2456    0.0000 O   0  0
   -1.5515    2.2868    0.0000 C   0  0
   -0.5667    0.0333    0.0000 C   0  0
   -0.9833   -0.6792    0.0000 C   0  0
 18 23  1  0
 19 20  1  0
 20 21  1  0
 21 22  1  0
 22 23  1  0
  1  2  2  0
  2  3  1  0
  3  6  2  0
  5  4  2  0
  4  1  1  0
 24 31  1  0
 31 32  1  0
  5  6  1  0
 24 25  1  0
 24 26  2  0
 25 27  2  0
 26 28  1  0
 26 29  1  0
 27 30  1  0
 28 30  2  0
  8 29  1  0
  6  7  1  0
  7  8  1  0
  8  9  2  0
  9  5  1  0
  7 10  1  0
 10 11  2  0
 11 12  1  0
 12 13  2  0
 13 14  1  0
 14 15  2  0
 15 10  1  0
  9 16  1  0
 16 17  2  0
 16 18  1  0
 18 19  1  0
M  END
>  <ID_NEW>
CPDRE1273

>  <pIC50>
6.215382707367125

$$$$

  SciTegic12180813532D

 41 46  0  0  0  0            999 V2000
   -0.7658   -4.6662    0.0000 C   0  0
   -1.5643   -4.8771    0.0000 C   0  0
   -1.7795   -5.6726    0.0000 C   0  0
   -1.1971   -6.2579    0.0000 C   0  0
   -0.3965   -6.0423    0.0000 C   0  0
   -0.1851   -5.2472    0.0000 C   0  0
    3.9823   -5.0298    0.0000 C   0  0
    3.3953   -5.6111    0.0000 C   0  0
    3.6056   -6.4080    0.0000 C   0  0
    4.4025   -6.6249    0.0000 C   0  0
    4.9890   -6.0385    0.0000 C   0  0
    4.7756   -5.2438    0.0000 C   0  0
    2.3019   -5.3252    0.0000 C   0  0
    1.5863   -5.7317    0.0000 C   0  0
    1.5814   -6.5528    0.0000 C   0  0
    2.2915   -6.9685    0.0000 C   0  0
    3.0079   -6.5570    0.0000 C   0  0
    3.0093   -5.7372    0.0000 C   0  0
    3.0875   -1.8458    0.0000 N   0  0
    3.6708   -1.2583    0.0000 C   0  0
    3.4549   -0.4638    0.0000 C   0  0
    2.6556   -0.2503    0.0000 N   0  0
    2.0723   -0.8378    0.0000 C   0  0
    2.2882   -1.6388    0.0000 C   0  0
    1.6359   -4.0203    0.0000 C   0  0
    1.8491   -3.2223    0.0000 C   0  0
    1.2652   -2.6408    0.0000 C   0  0
    0.4680   -2.8560    0.0000 N   0  0
    0.2580   -3.6580    0.0000 C   0  0
    0.8433   -4.2361    0.0000 N   0  0
    2.3083   -4.5041    0.0000 N   0  0
    2.9776   -4.0217    0.0000 C   0  0
    2.7208   -3.2334    0.0000 C   0  0
   -0.5458   -3.8667    0.0000 C   0  0
    3.7708   -4.2333    0.0000 C   0  0
    3.3042   -2.6458    0.0000 C   0  0
    4.1000   -2.8583    0.0000 O   0  0
    0.6083   -5.0292    0.0000 C   0  0
    0.3125   -6.4542    0.0000 F   0  0
    5.3583   -4.6542    0.0000 C   0  0
    5.7833   -6.2500    0.0000 F   0  0
 19 24  1  0
 20 21  1  0
 21 22  1  0
 22 23  1  0
 23 24  1  0
 10 11  1  0
 25 26  2  0
 11 12  2  0
 26 27  1  0
 12  7  1  0
 27 28  2  0
  4  5  1  0
 28 29  1  0
 29 30  2  0
 30 25  1  0
 13 14  2  0
  5  6  2  0
 32 33  2  0
 14 15  1  0
 31 32  1  0
 33 26  1  0
 25 31  1  0
  6  1  1  0
 29 34  1  0
 34  1  1  0
 15 16  2  0
 32 35  1  0
 35  7  1  0
 31 13  1  0
  1  2  2  0
 33 36  1  0
 16 17  1  0
 36 37  2  0
 36 19  1  0
  6 38  1  0
 17 18  2  0
  5 39  1  0
 18 13  1  0
 12 40  1  0
 19 20  1  0
 11 41  1  0
  7  8  2  0
  2  3  1  0
  8  9  1  0
  9 10  2  0
  3  4  2  0
M  END
>  <ID_NEW>
CPDRE1274

>  <pIC50>
6.215382707367125

$$$$

  SciTegic12180813472D

 33 37  0  0  0  0            999 V2000
    3.0402   -3.3291    0.0000 C   0  0
    3.0349   -4.1523    0.0000 C   0  0
    3.7441   -4.5667    0.0000 C   0  0
    4.4590   -4.1590    0.0000 C   0  0
    4.4603   -3.3327    0.0000 C   0  0
    3.7506   -2.9220    0.0000 C   0  0
    2.0667   -0.4625    0.0000 N   0  0
    2.7833   -0.0416    0.0000 C   0  0
    2.7787    0.7833    0.0000 C   0  0
    2.0592    1.1937    0.0000 N   0  0
    1.3425    0.7770    0.0000 C   0  0
    1.3454   -0.0542    0.0000 C   0  0
    0.9352   -3.8128    0.0000 C   0  0
    0.2155   -4.2233    0.0000 C   0  0
    0.2106   -5.0487    0.0000 C   0  0
    0.9248   -5.4643    0.0000 C   0  0
    1.6454   -5.0529    0.0000 C   0  0
    1.6468   -4.2289    0.0000 C   0  0
    0.2651   -2.4994    0.0000 C   0  0
    0.4824   -1.6974    0.0000 C   0  0
   -0.1056   -1.1158    0.0000 C   0  0
   -0.9070   -1.3310    0.0000 N   0  0
   -1.1170   -2.1372    0.0000 C   0  0
   -0.5275   -2.7195    0.0000 C   0  0
    0.9416   -2.9875    0.0000 N   0  0
    1.6151   -2.5008    0.0000 C   0  0
    1.3583   -1.7084    0.0000 C   0  0
    2.0750   -1.2917    0.0000 C   0  0
    2.7916   -1.7042    0.0000 O   0  0
    2.3250   -2.9125    0.0000 O   0  0
    3.7459   -2.0958    0.0000 C   0  0
    5.1709   -2.9125    0.0000 F   0  0
    3.7375   -5.3917    0.0000 F   0  0
 27 20  1  0
 19 25  1  0
 25 13  1  0
 19 20  2  0
 27 28  1  0
 20 21  1  0
 28 29  2  0
 28  7  1  0
  9 10  1  0
 10 11  1  0
 11 12  1  0
  7  8  1  0
  7 12  1  0
  8  9  1  0
 16 17  1  0
 21 22  2  0
 14 15  1  0
 22 23  1  0
 26 30  1  0
 30  1  1  0
  4  5  1  0
  6 31  1  0
  2  3  1  0
  5 32  1  0
  5  6  2  0
  3 33  1  0
  6  1  1  0
  1  2  2  0
  3  4  2  0
 17 18  2  0
 23 24  2  0
 24 19  1  0
 18 13  1  0
 13 14  2  0
 26 27  2  0
 15 16  2  0
 25 26  1  0
M  END
>  <ID_NEW>
CPDRE1275

>  <pIC50>
6.185086818724925

$$$$

  SciTegic12180813542D

 32 36  0  0  0  0            999 V2000
   -5.8281    0.7731    0.0000 C   0  0
   -5.8293   -0.0543    0.0000 C   0  0
   -5.1145   -0.4671    0.0000 C   0  0
   -5.1163    1.1859    0.0000 N   0  0
   -3.6096    1.0354    0.0000 C   0  0
   -4.4009    0.7767    0.0000 C   0  0
   -4.3983   -0.0564    0.0000 C   0  0
   -3.6045   -0.3101    0.0000 N   0  0
   -3.1192    0.3672    0.0000 C   0  0
   -3.3702   -1.1102    0.0000 C   0  0
   -2.5734   -1.2930    0.0000 C   0  0
   -3.9413   -1.6950    0.0000 C   0  0
   -2.3392   -2.0896    0.0000 C   0  0
   -3.7072   -2.4916    0.0000 C   0  0
   -2.9048   -2.6936    0.0000 C   0  0
   -3.3573    1.8208    0.0000 C   0  0
   -2.5509    1.9950    0.0000 O   0  0
   -3.9116    2.4350    0.0000 N   0  0
   -3.6546    3.2196    0.0000 C   0  0
   -4.2050    3.8324    0.0000 C   0  0
   -5.0153    3.6636    0.0000 N   0  0
   -5.2723    2.8762    0.0000 C   0  0
   -4.7189    2.2576    0.0000 C   0  0
   -2.4096    0.7912    0.0000 C   0  0
   -1.6266    0.5313    0.0000 C   0  0
   -1.4650   -0.2780    0.0000 C   0  0
   -0.6829   -0.5380    0.0000 C   0  0
   -0.0653    0.0103    0.0000 C   0  0
   -0.2351    0.8220    0.0000 C   0  0
   -1.0170    1.0783    0.0000 C   0  0
   -1.1868    1.8856    0.0000 F   0  0
   -2.0833   -0.8241    0.0000 F   0  0
  7  8  1  0
  8  9  1  0
  9  5  2  0
 10 11  1  0
 10 12  1  0
 10  8  1  0
 11 13  1  0
 12 14  1  0
 13 15  1  0
 14 15  1  0
  4  1  2  0
  6  7  2  0
  2  3  2  0
  3  7  1  0
  1  2  1  0
  6  4  1  0
  5  6  1  0
  5 16  1  0
 16 17  2  0
 16 18  1  0
 18 19  1  0
 18 23  1  0
 19 20  1  0
 20 21  1  0
 21 22  1  0
 22 23  1  0
  9 24  1  0
 24 25  1  0
 25 26  2  0
 26 27  1  0
 27 28  2  0
 28 29  1  0
 29 30  2  0
 30 25  1  0
 30 31  1  0
 26 32  1  0
M  END
>  <ID_NEW>
CPDRE1276

>  <pIC50>
6.169411331314855

$$$$

  SciTegic12180813072D

 32 36  0  0  0  0            999 V2000
   -5.8297    0.7647    0.0000 C   0  0
   -5.8286   -0.0602    0.0000 C   0  0
   -5.1062   -0.4609    0.0000 C   0  0
   -5.1167    1.1849    0.0000 C   0  0
   -4.4026    0.7800    0.0000 C   0  0
   -4.3889   -0.0450    0.0000 C   0  0
   -3.6082   -0.2955    0.0000 N   0  0
   -3.1250    0.3760    0.0000 C   0  0
   -3.6177    1.0397    0.0000 C   0  0
   -3.3401   -1.0761    0.0000 C   0  0
   -3.8919   -1.6958    0.0000 C   0  0
   -3.6280   -2.4806    0.0000 C   0  0
   -2.8206   -2.6417    0.0000 C   0  0
   -2.2727   -2.0262    0.0000 C   0  0
   -2.5368   -1.2414    0.0000 C   0  0
   -3.3672    1.8289    0.0000 C   0  0
   -2.5653    2.0039    0.0000 O   0  0
   -3.9310    2.4386    0.0000 N   0  0
   -3.6804    3.2235    0.0000 C   0  0
   -4.2400    3.8332    0.0000 C   0  0
   -5.0459    3.6538    0.0000 N   0  0
   -5.2924    2.8689    0.0000 C   0  0
   -4.7328    2.2551    0.0000 C   0  0
   -0.9749    0.7437    0.0000 C   0  0
   -0.4462    1.3808    0.0000 C   0  0
   -1.7836    0.8784    0.0000 C   0  0
   -0.7345    2.1522    0.0000 C   0  0
   -2.0719    1.6540    0.0000 C   0  0
   -2.3122    0.2456    0.0000 O   0  0
   -1.5515    2.2868    0.0000 C   0  0
   -0.5667    0.0333    0.0000 O   0  0
    0.0167   -0.5500    0.0000 C   0  0
 18 23  1  0
 19 20  1  0
 20 21  1  0
 21 22  1  0
 22 23  1  0
  1  2  2  0
  2  3  1  0
  3  6  2  0
  5  4  2  0
  4  1  1  0
  5  6  1  0
 24 25  1  0
 24 26  2  0
 25 27  2  0
 26 28  1  0
 26 29  1  0
 27 30  1  0
 28 30  2  0
  8 29  1  0
  6  7  1  0
  7  8  1  0
  8  9  2  0
  9  5  1  0
  7 10  1  0
 10 11  2  0
 11 12  1  0
 12 13  2  0
 13 14  1  0
 14 15  2  0
 15 10  1  0
  9 16  1  0
 16 17  2  0
 16 18  1  0
 18 19  1  0
 24 31  1  0
 31 32  1  0
M  END
>  <ID_NEW>
CPDRE1277

>  <pIC50>
6.167491087293763

$$$$

  SciTegic12180813522D

 32 36  0  0  0  0            999 V2000
    9.7216   -4.0331    0.0000 C   0  0
   10.4320   -4.4457    0.0000 C   0  0
   11.1423   -4.0368    0.0000 C   0  0
   11.1436   -3.2156    0.0000 C   0  0
   10.4285   -2.8048    0.0000 C   0  0
    9.7210   -3.2160    0.0000 C   0  0
    6.1776   -4.4182    0.0000 C   0  0
    6.5358   -2.8052    0.0000 N   0  0
    5.7433   -3.0538    0.0000 C   0  0
    5.5663   -3.8604    0.0000 C   0  0
    6.9659   -4.1696    0.0000 C   0  0
    7.1430   -3.3631    0.0000 C   0  0
    7.9692   -3.2800    0.0000 C   0  0
    8.2982   -4.0381    0.0000 C   0  0
    7.6801   -4.5876    0.0000 N   0  0
    7.7591   -5.4138    0.0000 C   0  0
    8.3873   -2.5699    0.0000 C   0  0
    7.9762   -1.8487    0.0000 N   0  0
    9.2164   -2.5728    0.0000 O   0  0
    8.5123   -5.7551    0.0000 C   0  0
    8.5954   -6.5771    0.0000 C   0  0
    7.9211   -7.0581    0.0000 C   0  0
    7.1679   -6.7168    0.0000 C   0  0
    7.0848   -5.8948    0.0000 C   0  0
    8.3984   -1.1344    0.0000 C   0  0
    7.9915   -0.4132    0.0000 C   0  0
    7.1625   -0.4102    0.0000 N   0  0
    6.7443   -1.1244    0.0000 C   0  0
    7.1513   -1.8415    0.0000 C   0  0
    9.0083   -4.4500    0.0000 O   0  0
   10.4208   -1.9792    0.0000 C   0  0
   10.4250   -5.2667    0.0000 C   0  0
  5  6  2  0
  6  1  1  0
  1  2  2  0
  3  4  2  0
 15 11  1  0
 15 16  1  0
 13 17  1  0
 17 18  1  0
 17 19  2  0
 16 20  2  0
 20 21  1  0
 21 22  2  0
 22 23  1  0
 23 24  2  0
 24 16  1  0
 18 25  1  0
 18 29  1  0
 25 26  1  0
 26 27  1  0
 27 28  1  0
 28 29  1  0
 11  7  1  0
  7 10  2  0
  9  8  2  0
  8 12  1  0
  9 10  1  0
 11 12  2  0
 12 13  1  0
 13 14  2  0
 14 15  1  0
 14 30  1  0
 30  1  1  0
  4  5  1  0
  5 31  1  0
  2  3  1  0
  2 32  1  0
M  END
>  <ID_NEW>
CPDRE1278

>  <pIC50>
6.159893905543242

$$$$

  SciTegic12180813082D

 31 35  0  0  0  0            999 V2000
   -3.4902   -0.7028    0.0000 N   0  0
   -3.0083   -0.0313    0.0000 C   0  0
   -3.4981    0.6344    0.0000 C   0  0
   -3.2307   -1.4859    0.0000 C   0  0
   -3.2477    1.4205    0.0000 C   0  0
   -2.4418    1.5967    0.0000 O   0  0
   -3.7823   -2.0975    0.0000 C   0  0
   -3.5233   -2.8800    0.0000 C   0  0
   -2.7146   -3.0475    0.0000 C   0  0
   -2.1653   -2.4262    0.0000 C   0  0
   -2.4271   -1.6461    0.0000 C   0  0
   -3.8033    2.0303    0.0000 N   0  0
   -3.5495    2.8176    0.0000 C   0  0
   -4.1012    3.4261    0.0000 C   0  0
   -4.9084    3.2539    0.0000 N   0  0
   -5.1608    2.4675    0.0000 C   0  0
   -4.6062    1.8533    0.0000 C   0  0
   -2.1833   -0.0264    0.0000 O   0  0
   -1.7666   -0.7384    0.0000 C   0  0
   -2.1766   -1.4542    0.0000 C   0  0
   -0.9381   -2.1635    0.0000 C   0  0
   -0.5276   -1.4467    0.0000 C   0  0
   -1.7634   -2.1641    0.0000 C   0  0
   -0.9425   -0.7306    0.0000 C   0  0
   -4.2777   -0.4520    0.0000 C   0  0
   -4.2793    0.3722    0.0000 C   0  0
   -4.9927    0.7811    0.0000 C   0  0
   -5.7050    0.3670    0.0000 C   0  0
   -5.6994   -0.4603    0.0000 C   0  0
   -4.9855   -0.8655    0.0000 C   0  0
   -2.4541   -3.8303    0.0000 F   0  0
  2 18  1  0
 18 19  1  0
 19 20  2  0
 21 22  1  0
 19 24  1  0
 20 23  1  0
 23 21  2  0
 22 24  2  0
 25 26  2  0
 26 27  1  0
 27 28  2  0
 28 29  1  0
 29 30  2  0
 30 25  1  0
  9 31  1  0
 25  1  1  0
  1  2  1  0
  2  3  2  0
  3 26  1  0
  1  4  1  0
  3  5  1  0
  5  6  2  0
  4  7  2  0
  7  8  1  0
  8  9  2  0
  9 10  1  0
 10 11  2  0
 11  4  1  0
  5 12  1  0
 12 13  1  0
 12 17  1  0
 13 14  1  0
 14 15  1  0
 15 16  1  0
 16 17  1  0
M  END
>  <ID_NEW>
CPDRE1279

>  <pIC50>
6.1505805862031

$$$$

  SciTegic12180813492D

 33 37  0  0  0  0            999 V2000
    2.2627   -0.8863    0.0000 N   0  0
    2.5149   -0.1032    0.0000 C   0  0
    1.9598    0.5107    0.0000 C   0  0
    1.1524    0.3330    0.0000 N   0  0
    0.9003   -0.4500    0.0000 C   0  0
    1.4554   -1.0638    0.0000 C   0  0
    2.8319   -4.4011    0.0000 C   0  0
    2.2839   -5.0166    0.0000 C   0  0
    2.5421   -5.7992    0.0000 C   0  0
    3.3525   -5.9703    0.0000 C   0  0
    3.9006   -5.3506    0.0000 C   0  0
    3.6424   -4.5680    0.0000 C   0  0
    0.3559   -2.5502    0.0000 C   0  0
    0.3593   -3.3752    0.0000 N   0  0
    1.0788   -3.7811    0.0000 C   0  0
    1.0679   -2.1312    0.0000 C   0  0
    1.7873   -2.5413    0.0000 C   0  0
    1.7907   -3.3663    0.0000 C   0  0
    2.5737   -3.6184    0.0000 N   0  0
    3.0577   -2.9464    0.0000 C   0  0
    2.5699   -2.2831    0.0000 C   0  0
    3.6107   -6.7529    0.0000 F   0  0
    2.8178   -1.4959    0.0000 C   0  0
    3.6252   -1.3225    0.0000 O   0  0
    4.5465   -3.0697    0.0000 C   0  0
    4.6870   -2.2578    0.0000 C   0  0
    5.1796   -3.5989    0.0000 C   0  0
    4.0498   -1.7328    0.0000 F   0  0
    6.0938   -2.4961    0.0000 C   0  0
    5.4607   -1.9711    0.0000 C   0  0
    5.9573   -3.3121    0.0000 C   0  0
    5.0433   -4.4107    0.0000 C   0  0
    3.7730   -3.3564    0.0000 O   0  0
 21 23  1  0
 12  7  1  0
 23 24  2  0
 23  1  1  0
  4  5  1  0
  5  6  1  0
  1  2  1  0
  1  6  1  0
  2  3  1  0
  3  4  1  0
  7  8  2  0
  9 10  2  0
 16 13  1  0
 17 18  1  0
 14 15  1  0
 15 18  2  0
 26 25  1  0
 27 25  2  0
 28 26  1  0
 29 31  2  0
 30 26  2  0
 31 27  1  0
 32 27  1  0
 30 29  1  0
 25 33  1  0
 20 33  1  0
 13 14  2  0
 17 16  2  0
 18 19  1  0
 19 20  1  0
 20 21  2  0
 21 17  1  0
 19  7  1  0
 10 22  1  0
 10 11  1  0
  8  9  1  0
 11 12  2  0
M  END
>  <ID_NEW>
CPDRE1280

>  <pIC50>
6.145086977692143

$$$$

  SciTegic12180813542D

 32 36  0  0  0  0            999 V2000
    0.6653   -3.9917    0.0000 C   0  0
    0.6641   -4.8190    0.0000 C   0  0
    1.3790   -5.2319    0.0000 C   0  0
    1.3772   -3.5789    0.0000 C   0  0
    2.8839   -3.7294    0.0000 C   0  0
    2.0925   -3.9880    0.0000 C   0  0
    2.0951   -4.8212    0.0000 C   0  0
    2.8889   -5.0749    0.0000 N   0  0
    3.3743   -4.3976    0.0000 C   0  0
    3.1362   -2.9440    0.0000 C   0  0
    3.9426   -2.7698    0.0000 N   0  0
    2.5822   -2.3327    0.0000 O   0  0
    4.1993   -4.3929    0.0000 C   0  0
    3.1483   -5.8580    0.0000 C   0  0
    4.4959   -3.3846    0.0000 C   0  0
    5.2991   -3.2131    0.0000 C   0  0
    5.5557   -2.4286    0.0000 N   0  0
    5.0024   -1.8153    0.0000 C   0  0
    4.1927   -1.9865    0.0000 C   0  0
    4.6159   -5.1050    0.0000 C   0  0
    4.2056   -5.8210    0.0000 C   0  0
    4.6215   -6.5326    0.0000 C   0  0
    5.4474   -6.5284    0.0000 C   0  0
    5.8556   -5.8065    0.0000 C   0  0
    5.4374   -5.0979    0.0000 C   0  0
    5.8434   -4.3797    0.0000 C   0  0
    6.6806   -5.7989    0.0000 F   0  0
    2.5985   -6.4687    0.0000 C   0  0
    2.8549   -7.2490    0.0000 C   0  0
    3.6623   -7.4201    0.0000 O   0  0
    4.2129   -6.8045    0.0000 C   0  0
    3.9561   -6.0178    0.0000 C   0  0
  6  4  2  0
 11 19  1  0
 15 16  1  0
 16 17  1  0
 17 18  1  0
 18 19  1  0
  4  1  1  0
  6  7  1  0
  5  6  1  0
  7  8  1  0
  8  9  1  0
  9  5  2  0
  5 10  1  0
 13 20  1  0
 10 11  1  0
 20 21  2  0
 10 12  2  0
 21 22  1  0
  9 13  1  0
 22 23  2  0
  8 14  1  0
 23 24  1  0
 24 25  2  0
 25 20  1  0
 25 26  1  0
 24 27  1  0
 14 28  1  0
 11 15  1  0
  1  2  2  0
  2  3  1  0
  3  7  2  0
 14 32  1  0
 28 29  1  0
 29 30  1  0
 30 31  1  0
 31 32  1  0
M  END
>  <ID_NEW>
CPDRE1281

>  <pIC50>
6.123782159408357

$$$$

  SciTegic12180813452D

 30 34  0  0  0  0            999 V2000
    1.2728   -3.4461    0.0000 C   0  0
    0.5571   -3.8525    0.0000 C   0  0
    0.5523   -4.6737    0.0000 C   0  0
    1.2623   -5.0893    0.0000 C   0  0
    1.9788   -4.6779    0.0000 C   0  0
    1.9801   -3.8581    0.0000 C   0  0
    2.8698   -3.3507    0.0000 C   0  0
    2.2828   -3.9319    0.0000 C   0  0
    2.4931   -4.7289    0.0000 C   0  0
    3.2900   -4.9457    0.0000 C   0  0
    3.8765   -4.3594    0.0000 C   0  0
    3.6631   -3.5647    0.0000 C   0  0
    3.0708   -0.9792    0.0000 N   0  0
    3.2833   -1.7750    0.0000 C   0  0
    4.0744   -1.9877    0.0000 C   0  0
    4.6585   -1.4078    0.0000 N   0  0
    4.4460   -0.6120    0.0000 C   0  0
    3.6494   -0.3960    0.0000 C   0  0
    0.6068   -2.1411    0.0000 C   0  0
    0.8199   -1.3432    0.0000 C   0  0
    0.2361   -0.7616    0.0000 C   0  0
   -0.5611   -0.9768    0.0000 C   0  0
   -0.7712   -1.7789    0.0000 N   0  0
   -0.1858   -2.3570    0.0000 C   0  0
    1.2792   -2.6250    0.0000 N   0  0
    1.9485   -2.1425    0.0000 C   0  0
    1.6917   -1.3542    0.0000 C   0  0
    2.6583   -2.5542    0.0000 C   0  0
    2.2750   -0.7667    0.0000 C   0  0
    1.8583   -0.0500    0.0000 O   0  0
 20 21  1  0
 10 11  1  0
 21 22  2  0
  5  6  2  0
 22 23  1  0
 11 12  2  0
 23 24  2  0
 24 19  1  0
 12  7  1  0
 13 14  1  0
 26 27  2  0
  6  1  1  0
 25 26  1  0
 27 20  1  0
 19 25  1  0
 25  1  1  0
  1  2  2  0
 26 28  1  0
 28  7  1  0
  3  4  2  0
 27 29  1  0
  7  8  2  0
 29 30  2  0
 29 13  1  0
  8  9  1  0
 13 18  1  0
 14 15  1  0
 15 16  1  0
 16 17  1  0
 17 18  1  0
  4  5  1  0
  9 10  2  0
 19 20  2  0
  2  3  1  0
M  END
>  <ID_NEW>
CPDRE1282

>  <pIC50>
6.118615343229427

$$$$

  SciTegic12180813082D

 36 40  0  0  0  0            999 V2000
   -5.7056    0.2916    0.0000 C   0  0
   -5.7068   -0.5357    0.0000 C   0  0
   -4.9919   -0.9486    0.0000 C   0  0
   -4.9937    0.7044    0.0000 C   0  0
   -4.2784    0.2953    0.0000 C   0  0
   -4.2735   -0.5312    0.0000 C   0  0
   -3.4860   -0.7820    0.0000 N   0  0
   -3.0041   -0.1105    0.0000 C   0  0
   -3.4939    0.5552    0.0000 C   0  0
   -3.2265   -1.5651    0.0000 C   0  0
   -3.2435    1.3413    0.0000 C   0  0
   -2.4376    1.5175    0.0000 O   0  0
   -3.7781   -2.1767    0.0000 C   0  0
   -3.5191   -2.9592    0.0000 C   0  0
   -2.7104   -3.1267    0.0000 C   0  0
   -2.1611   -2.5054    0.0000 C   0  0
   -2.4229   -1.7253    0.0000 C   0  0
   -3.7991    1.9511    0.0000 N   0  0
   -3.5453    2.7384    0.0000 C   0  0
   -4.0970    3.3469    0.0000 C   0  0
   -4.9042    3.1747    0.0000 N   0  0
   -5.1566    2.3883    0.0000 C   0  0
   -4.6020    1.7741    0.0000 C   0  0
   -1.3526   -2.6694    0.0000 O   0  0
   -0.8063   -2.0511    0.0000 C   0  0
    0.0023   -2.2151    0.0000 C   0  0
    0.5485   -1.5969    0.0000 C   0  0
    1.3571   -1.7609    0.0000 O   0  0
    1.9034   -1.1426    0.0000 C   0  0
   -2.1791   -0.1056    0.0000 O   0  0
   -1.3542   -0.1042    0.0000 C   0  0
   -0.9423   -0.8202    0.0000 C   0  0
   -0.1182   -0.8192    0.0000 C   0  0
    0.2939   -0.1035    0.0000 C   0  0
   -0.1242    0.6126    0.0000 C   0  0
   -0.9470    0.6080    0.0000 C   0  0
 14 15  2  0
 15 16  1  0
 16 17  2  0
 17 10  1  0
 11 18  1  0
 18 19  1  0
 18 23  1  0
 19 20  1  0
 20 21  1  0
 21 22  1  0
 22 23  1  0
 16 24  1  0
 24 25  1  0
 25 26  1  0
 26 27  1  0
 27 28  1  0
 28 29  1  0
  8 30  1  0
 30 31  1  0
 31 32  2  0
 32 33  1  0
 33 34  2  0
 34 35  1  0
 35 36  2  0
 36 31  1  0
  1  2  2  0
  2  3  1  0
  3  6  2  0
  5  4  2  0
  4  1  1  0
  5  6  1  0
  6  7  1  0
  7  8  1  0
  8  9  2  0
  9  5  1  0
  7 10  1  0
  9 11  1  0
 11 12  2  0
 10 13  2  0
 13 14  1  0
M  END
>  <ID_NEW>
CPDRE1283

>  <pIC50>
6.117475462045118

$$$$

  SciTegic12180813102D

 31 35  0  0  0  0            999 V2000
   -5.7047    1.0439    0.0000 C   0  0
   -5.7036    0.3273    0.0000 C   0  0
   -5.0770   -0.0234    0.0000 C   0  0
   -5.0875    1.4057    0.0000 C   0  0
   -4.4651    1.0550    0.0000 C   0  0
   -4.4556    0.3383    0.0000 C   0  0
   -3.7749    0.1212    0.0000 N   0  0
   -3.3542    0.7052    0.0000 C   0  0
   -3.7844    1.2814    0.0000 C   0  0
   -3.5443   -0.5553    0.0000 C   0  0
   -4.0211   -1.0958    0.0000 C   0  0
   -3.7947   -1.7764    0.0000 C   0  0
   -3.0914   -1.9167    0.0000 C   0  0
   -2.6144   -1.3804    0.0000 C   0  0
   -2.8451   -0.6997    0.0000 C   0  0
   -3.5672    1.9664    0.0000 C   0  0
   -2.8695    2.1206    0.0000 O   0  0
   -4.0560    2.4969    0.0000 N   0  0
   -3.8387    3.1777    0.0000 C   0  0
   -4.3233    3.7082    0.0000 C   0  0
   -5.0251    3.5538    0.0000 N   0  0
   -5.2382    2.8689    0.0000 C   0  0
   -4.7536    2.3384    0.0000 C   0  0
   -1.4874    1.0229    0.0000 C   0  0
   -1.0295    1.5766    0.0000 C   0  0
   -2.1919    1.1409    0.0000 C   0  0
   -1.2803    2.2480    0.0000 C   0  0
   -0.3208    1.4586    0.0000 C   0  0
   -2.4427    1.8165    0.0000 C   0  0
   -2.6497    0.5914    0.0000 O   0  0
   -1.9890    2.3660    0.0000 C   0  0
  1  2  2  0
  2  3  1  0
  3  6  2  0
  5  4  2  0
  4  1  1  0
  5  6  1  0
 24 25  1  0
 24 26  2  0
 25 27  2  0
 25 28  1  0
 26 29  1  0
 26 30  1  0
 27 31  1  0
 29 31  2  0
  8 30  1  0
  6  7  1  0
  7  8  1  0
  8  9  2  0
  9  5  1  0
  7 10  1  0
 10 11  2  0
 11 12  1  0
 12 13  2  0
 13 14  1  0
 14 15  2  0
 15 10  1  0
  9 16  1  0
 16 17  2  0
 16 18  1  0
 18 19  1  0
 18 23  1  0
 19 20  1  0
 20 21  1  0
 21 22  1  0
 22 23  1  0
M  END
>  <ID_NEW>
CPDRE1284

>  <pIC50>
6.111820506081674

$$$$

  SciTegic12180813472D

 32 36  0  0  0  0            999 V2000
   -5.7056   -0.1666    0.0000 C   0  0
   -5.7068   -0.9940    0.0000 C   0  0
   -4.9920   -1.4069    0.0000 C   0  0
   -4.9938    0.2461    0.0000 C   0  0
   -4.2784   -0.1630    0.0000 C   0  0
   -4.2736   -0.9894    0.0000 C   0  0
   -3.4861   -1.2403    0.0000 N   0  0
   -3.0041   -0.5688    0.0000 C   0  0
   -3.4939    0.0969    0.0000 C   0  0
   -3.2266   -2.0234    0.0000 C   0  0
   -3.7781   -2.6350    0.0000 C   0  0
   -3.5192   -3.4175    0.0000 C   0  0
   -2.7104   -3.5849    0.0000 C   0  0
   -2.1611   -2.9637    0.0000 C   0  0
   -2.4230   -2.1836    0.0000 C   0  0
   -3.2436    0.8830    0.0000 C   0  0
   -2.4376    1.0593    0.0000 O   0  0
   -3.7992    1.4929    0.0000 N   0  0
   -3.5468    2.2759    0.0000 C   0  0
   -4.0985    2.8844    0.0000 C   0  0
   -4.9057    2.7122    0.0000 N   0  0
   -5.1582    1.9258    0.0000 C   0  0
   -4.6035    1.3116    0.0000 C   0  0
   -2.1791   -0.5639    0.0000 C   0  0
   -1.4667   -0.9750    0.0000 C   0  0
   -1.4693   -1.7986    0.0000 C   0  0
   -0.7577   -2.2096    0.0000 C   0  0
   -0.0445   -1.7981    0.0000 C   0  0
   -0.0473   -0.9714    0.0000 C   0  0
   -0.7595   -0.5641    0.0000 C   0  0
   -0.7623    0.2609    0.0000 Cl  0  0
   -0.7580   -3.0346    0.0000 F   0  0
 14 15  2  0
 15 10  1  0
  9 16  1  0
 16 17  2  0
 16 18  1  0
 18 19  1  0
 18 23  1  0
 19 20  1  0
 20 21  1  0
 21 22  1  0
 22 23  1  0
  8 24  1  0
 24 25  1  0
 25 26  2  0
 26 27  1  0
 27 28  2  0
 28 29  1  0
 29 30  2  0
 30 25  1  0
 30 31  1  0
 27 32  1  0
  1  2  2  0
  2  3  1  0
  3  6  2  0
  5  4  2  0
  4  1  1  0
  5  6  1  0
  6  7  1  0
  7  8  1  0
  8  9  2  0
  9  5  1  0
  7 10  1  0
 10 11  2  0
 11 12  1  0
 12 13  2  0
 13 14  1  0
M  END
>  <ID_NEW>
CPDRE1285

>  <pIC50>
6.09908693226233

$$$$

  SciTegic12180813462D

 31 35  0  0  0  0            999 V2000
    1.0688   -2.2104    0.0000 N   0  0
    1.7331   -1.7205    0.0000 C   0  0
    1.6407   -0.9029    0.0000 C   0  0
    0.8875   -0.5765    0.0000 N   0  0
    0.2248   -1.0625    0.0000 C   0  0
    0.3173   -1.8802    0.0000 C   0  0
   -0.5220   -5.3744    0.0000 C   0  0
   -1.3206   -5.5513    0.0000 C   0  0
   -1.5708   -6.3344    0.0000 C   0  0
   -1.0129   -6.9401    0.0000 C   0  0
   -0.2159   -6.7670    0.0000 C   0  0
    0.0343   -5.9839    0.0000 C   0  0
   -0.7579   -3.9284    0.0000 C   0  0
   -0.2792   -3.2617    0.0000 C   0  0
   -0.6222   -2.5178    0.0000 C   0  0
   -1.4405   -2.4330    0.0000 N   0  0
   -1.9207   -3.1036    0.0000 C   0  0
   -1.5756   -3.8529    0.0000 C   0  0
   -0.2735   -4.5951    0.0000 N   0  0
    0.5103   -4.3323    0.0000 C   0  0
    0.5001   -3.5102    0.0000 C   0  0
    1.1628   -3.0242    0.0000 C   0  0
    1.9143   -3.3543    0.0000 O   0  0
    2.4550   -5.3021    0.0000 C   0  0
    1.8749   -4.7164    0.0000 C   0  0
    3.2488   -5.0999    0.0000 C   0  0
    2.2358   -6.0921    0.0000 C   0  0
    2.1033   -3.9257    0.0000 C   0  0
    1.0811   -4.9185    0.0000 O   0  0
    3.4696   -4.3060    0.0000 C   0  0
    2.8949   -3.7181    0.0000 C   0  0
 17 18  2  0
 24 25  2  0
 24 26  1  0
 24 27  1  0
 25 28  1  0
 25 29  1  0
 26 30  2  0
 28 31  2  0
 30 31  1  0
 20 29  1  0
 18 13  1  0
 12  7  1  0
  7  8  2  0
 20 21  2  0
  9 10  2  0
 19 20  1  0
 21 14  1  0
 13 19  1  0
 19  7  1  0
 13 14  2  0
 21 22  1  0
 14 15  1  0
 22 23  2  0
 22  1  1  0
  3  4  1  0
  4  5  1  0
  5  6  1  0
  1  2  1  0
  1  6  1  0
  2  3  1  0
 10 11  1  0
 15 16  2  0
  8  9  1  0
 16 17  1  0
 11 12  2  0
M  END
>  <ID_NEW>
CPDRE1286

>  <pIC50>
6.072116589669293

$$$$

  SciTegic12180813512D

 34 38  0  0  0  0            999 V2000
   10.1652   -4.6916    0.0000 C   0  0
   10.1599   -5.5148    0.0000 C   0  0
   10.8690   -5.9292    0.0000 C   0  0
   11.5840   -5.5215    0.0000 C   0  0
   11.5853   -4.6951    0.0000 C   0  0
   10.8755   -4.2845    0.0000 C   0  0
    8.0416   -2.4833    0.0000 N   0  0
    8.2541   -1.6833    0.0000 C   0  0
    7.6708   -1.1025    0.0000 C   0  0
    6.8717   -1.3161    0.0000 N   0  0
    6.6592   -2.1161    0.0000 C   0  0
    7.2458   -2.7025    0.0000 C   0  0
    6.1593   -4.1185    0.0000 C   0  0
    6.1581   -4.9459    0.0000 N   0  0
    6.8729   -5.3587    0.0000 C   0  0
    6.8711   -3.7057    0.0000 C   0  0
    8.3778   -3.8562    0.0000 C   0  0
    7.5865   -4.1149    0.0000 C   0  0
    7.5891   -4.9480    0.0000 C   0  0
    8.3829   -5.2017    0.0000 N   0  0
    8.8682   -4.5244    0.0000 C   0  0
    8.8035   -5.9208    0.0000 C   0  0
    9.6208   -5.9061    0.0000 C   0  0
    8.3901   -6.6260    0.0000 C   0  0
   10.0401   -6.6228    0.0000 C   0  0
    8.8093   -7.3427    0.0000 C   0  0
    9.6367   -7.3453    0.0000 C   0  0
    5.4447   -3.7062    0.0000 O   0  0
    4.7304   -4.1188    0.0000 C   0  0
    8.6301   -3.0708    0.0000 C   0  0
    9.4365   -2.8966    0.0000 O   0  0
    9.5792   -4.1041    0.0000 C   0  0
   10.8708   -3.4583    0.0000 C   0  0
   12.2958   -4.2750    0.0000 F   0  0
  1  2  2  0
  3  4  2  0
  4  5  1  0
 19 20  1  0
 20 21  1  0
 21 17  2  0
 22 23  1  0
 22 24  2  0
 22 20  1  0
 23 25  2  0
 24 26  1  0
 25 27  1  0
 26 27  2  0
 13 28  1  0
 28 29  1  0
 16 13  2  0
 18 19  2  0
 14 15  2  0
 15 19  1  0
 13 14  1  0
 18 16  1  0
 17 18  1  0
 17 30  1  0
 30 31  2  0
 30  7  1  0
  7  8  1  0
  7 12  1  0
  8  9  1  0
  9 10  1  0
 10 11  1  0
 11 12  1  0
  2  3  1  0
 21 32  1  0
 32  1  1  0
  5  6  2  0
  6 33  1  0
  6  1  1  0
  5 34  1  0
M  END
>  <ID_NEW>
CPDRE1287

>  <pIC50>
6.070070439915411

$$$$

  -MTS-   10172316392D 0   0.00000     0.00000     0

 33 37  0  0  1  0  0  0  0  0999 V2000
   -1.6000   -0.2830    0.0000 C   0  0  0  0  0  0  0  0  0  0  0  0
   -1.6000   -1.1080    0.0000 C   0  0  0  0  0  0  0  0  0  0  0  0
   -0.8880   -1.5170    0.0000 C   0  0  0  0  0  0  0  0  0  0  0  0
   -0.8880    0.1330    0.0000 C   0  0  0  0  0  0  0  0  0  0  0  0
   -0.1760   -0.2830    0.0000 N   0  0  0  0  0  0  0  0  0  0  0  0
   -0.1760   -1.1090    0.0000 C   0  0  0  0  0  0  0  0  0  0  0  0
    0.6100   -1.3650    0.0000 C   0  0  0  0  0  0  0  0  0  0  0  0
    1.0950   -0.6960    0.0000 C   0  0  0  0  0  0  0  0  0  0  0  0
    0.6100   -0.0280    0.0000 C   0  0  0  0  0  0  0  0  0  0  0  0
    0.8640   -2.1490    0.0000 C   0  0  0  0  0  0  0  0  0  0  0  0
    0.3100   -2.7570    0.0000 C   0  0  0  0  0  0  0  0  0  0  0  0
    0.5650   -3.5410    0.0000 C   0  0  0  0  0  0  0  0  0  0  0  0
    1.3720   -3.7140    0.0000 C   0  0  0  0  0  0  0  0  0  0  0  0
    1.9250   -3.0960    0.0000 C   0  0  0  0  0  0  0  0  0  0  0  0
    1.6680   -2.3140    0.0000 C   0  0  0  0  0  0  0  0  0  0  0  0
    1.9200   -0.6960    0.0000 C   0  0  0  0  0  0  0  0  0  0  0  0
    2.3330   -1.4110    0.0000 C   0  0  0  0  0  0  0  0  0  0  0  0
    1.9190   -2.1230    0.0000 C   0  0  0  0  0  0  0  0  0  0  0  0
    2.3310   -2.8370    0.0000 C   0  0  0  0  0  0  0  0  0  0  0  0
    3.1570   -2.8370    0.0000 C   0  0  0  0  0  0  0  0  0  0  0  0
    3.5690   -2.1180    0.0000 C   0  0  0  0  0  0  0  0  0  0  0  0
    3.1550   -1.4070    0.0000 C   0  0  0  0  0  0  0  0  0  0  0  0
    0.8650    0.7560    0.0000 C   0  0  0  0  0  0  0  0  0  0  0  0
    1.6720    0.9280    0.0000 N   0  0  0  0  0  0  0  0  0  0  0  0
    0.3130    1.3690    0.0000 O   0  0  0  0  0  0  0  0  0  0  0  0
    2.2240    0.3100    0.0000 C   0  0  0  0  0  0  0  0  0  0  0  0
    3.0280    0.4790    0.0000 C   0  0  0  0  0  0  0  0  0  0  0  0
    3.2870    1.2620    0.0000 N   0  0  0  0  0  0  0  0  0  0  0  0
    2.7360    1.8770    0.0000 C   0  0  1  0  0  0  0  0  0  0  0  0
    1.9260    1.7090    0.0000 C   0  0  0  0  0  0  0  0  0  0  0  0
    2.9940    2.6550    0.0000 C   0  0  0  0  0  0  0  0  0  0  0  0
    1.2000   -1.7080    0.0000 C   0  0  0  0  0  0  0  0  0  0  0  0
    3.5640   -0.6910    0.0000 C   0  0  0  0  0  0  0  0  0  0  0  0
  3  6  1  0  0  0  0
  8 16  1  0  0  0  0
  6  7  2  0  0  0  0
 16 17  1  0  0  0  0
  7  8  1  0  0  0  0
 17 18  2  0  0  0  0
  8  9  2  0  0  0  0
 18 19  1  0  0  0  0
  9  5  1  0  0  0  0
 19 20  2  0  0  0  0
  5  4  1  0  0  0  0
 20 21  1  0  0  0  0
  7 10  1  0  0  0  0
 21 22  2  0  0  0  0
 22 17  1  0  0  0  0
  5  6  1  0  0  0  0
  9 23  1  0  0  0  0
 10 11  2  0  0  0  0
 23 24  1  0  0  0  0
 23 25  2  0  0  0  0
 24 26  1  0  0  0  0
 11 12  1  0  0  0  0
  1  2  1  0  0  0  0
 12 13  2  0  0  0  0
  1  4  2  0  0  0  0
 13 14  1  0  0  0  0
 24 30  1  0  0  0  0
 26 27  1  0  0  0  0
 27 28  1  0  0  0  0
 28 29  1  0  0  0  0
 29 30  1  0  0  0  0
  2  3  2  0  0  0  0
 29 31  1  1  0  0  0
 14 15  2  0  0  0  0
 18 32  1  0  0  0  0
 15 10  1  0  0  0  0
 22 33  1  0  0  0  0
M  END
>  <ID_NEW>
CPDRE1288

>  <pIC50>
6.05898575629443

$$$$

  SciTegic12180813522D

 35 39  0  0  0  0            999 V2000
    5.9792   -0.8875    0.0000 N   0  0
    6.1917   -1.6833    0.0000 C   0  0
    6.9827   -1.8960    0.0000 C   0  0
    7.5669   -1.3161    0.0000 N   0  0
    7.3544   -0.5203    0.0000 C   0  0
    6.5577   -0.3043    0.0000 C   0  0
    6.0586   -2.9757    0.0000 C   0  0
    5.6419   -3.6861    0.0000 C   0  0
    6.0486   -4.4001    0.0000 C   0  0
    6.8720   -4.4049    0.0000 C   0  0
    7.2869   -3.6898    0.0000 C   0  0
    6.8777   -2.9787    0.0000 C   0  0
    4.1811   -3.3544    0.0000 C   0  0
    3.4654   -3.7608    0.0000 C   0  0
    3.4606   -4.5820    0.0000 C   0  0
    4.1707   -4.9976    0.0000 C   0  0
    4.8871   -4.5862    0.0000 C   0  0
    4.8884   -3.7664    0.0000 C   0  0
    3.5151   -2.0494    0.0000 C   0  0
    3.7282   -1.2515    0.0000 C   0  0
    3.1444   -0.6699    0.0000 C   0  0
    2.3472   -0.8851    0.0000 C   0  0
    2.1371   -1.6872    0.0000 C   0  0
    2.7225   -2.2653    0.0000 C   0  0
    4.1875   -2.5333    0.0000 N   0  0
    4.8568   -2.0508    0.0000 C   0  0
    4.6000   -1.2625    0.0000 C   0  0
    5.1833   -0.6750    0.0000 C   0  0
    4.9667    0.1250    0.0000 O   0  0
    5.6500   -2.2625    0.0000 O   0  0
    1.3333   -1.8958    0.0000 C   0  0
    7.2833   -2.2583    0.0000 C   0  0
    5.6292   -5.1125    0.0000 F   0  0
    0.7417   -1.3083    0.0000 O   0  0
    1.1125   -2.6917    0.0000 O   0  0
 10 11  1  0
 21 22  2  0
  4  5  1  0
 22 23  1  0
 11 12  2  0
 23 24  2  0
 24 19  1  0
 12  7  1  0
  5  6  1  0
 26 27  2  0
 25 26  1  0
 27 20  1  0
 19 25  1  0
 13 14  2  0
 27 28  1  0
  1  2  1  0
 28 29  2  0
 28  1  1  0
 14 15  1  0
 26 30  1  0
 30  7  1  0
 25 13  1  0
  7  8  2  0
 23 31  1  0
 15 16  2  0
  1  6  1  0
 12 32  1  0
 16 17  1  0
  9 33  1  0
  8  9  1  0
 17 18  2  0
 18 13  1  0
  2  3  1  0
  9 10  2  0
 19 20  2  0
  3  4  1  0
 31 34  1  0
 20 21  1  0
 31 35  2  0
M  END
>  <ID_NEW>
CPDRE1289

>  <pIC50>
6.029653123769906

$$$$

  SciTegic12180813472D

 30 34  0  0  0  0            999 V2000
    1.6586   -3.6091    0.0000 C   0  0
    1.2419   -4.3195    0.0000 C   0  0
    1.6486   -5.0334    0.0000 C   0  0
    2.4720   -5.0383    0.0000 C   0  0
    2.8869   -4.3232    0.0000 C   0  0
    2.4777   -3.6121    0.0000 C   0  0
    0.6959   -0.6750    0.0000 N   0  0
    1.1042    0.0417    0.0000 C   0  0
    0.6900    0.7497    0.0000 C   0  0
   -0.1342    0.7473    0.0000 N   0  0
   -0.5425    0.0306    0.0000 C   0  0
   -0.1267   -0.6836    0.0000 C   0  0
   -0.2189   -3.9877    0.0000 C   0  0
   -0.9346   -4.3941    0.0000 C   0  0
   -0.9394   -5.2153    0.0000 C   0  0
   -0.2293   -5.6309    0.0000 C   0  0
    0.4871   -5.2195    0.0000 C   0  0
    0.4884   -4.3997    0.0000 C   0  0
   -0.8849   -2.6827    0.0000 C   0  0
   -0.6718   -1.8848    0.0000 C   0  0
   -1.2556   -1.3032    0.0000 N   0  0
   -2.0528   -1.5184    0.0000 C   0  0
   -2.2629   -2.3205    0.0000 C   0  0
   -1.6775   -2.8986    0.0000 C   0  0
   -0.2125   -3.1666    0.0000 N   0  0
    0.4568   -2.6841    0.0000 C   0  0
    0.2000   -1.8958    0.0000 C   0  0
    0.9125   -1.4791    0.0000 C   0  0
    1.6250   -1.8916    0.0000 O   0  0
    1.2500   -2.8958    0.0000 C   0  0
 23 24  2  0
 24 19  1  0
 18 13  1  0
 13 14  2  0
 26 27  2  0
 15 16  2  0
 25 26  1  0
 27 20  1  0
 19 25  1  0
 25 13  1  0
 19 20  2  0
 27 28  1  0
 20 21  1  0
 28 29  2  0
 28  7  1  0
  9 10  1  0
 10 11  1  0
 11 12  1  0
  7  8  1  0
  7 12  1  0
  8  9  1  0
 26 30  1  0
 30  1  1  0
  4  5  1  0
  2  3  1  0
  5  6  2  0
  6  1  1  0
  1  2  2  0
  3  4  2  0
 16 17  1  0
 21 22  2  0
 14 15  1  0
 22 23  1  0
 17 18  2  0
M  END
>  <ID_NEW>
CPDRE1290

>  <pIC50>
6.027334407733888

$$$$

  SciTegic12180813512D

 31 35  0  0  0  0            999 V2000
   -5.1164    0.4222    0.0000 C   0  0
   -5.1146    2.0753    0.0000 N   0  0
   -5.8300    1.6661    0.0000 C   0  0
   -5.8306    0.8352    0.0000 C   0  0
   -4.4015    0.8352    0.0000 C   0  0
   -4.4028    1.6638    0.0000 C   0  0
   -3.6135    1.9225    0.0000 C   0  0
   -3.1273    1.2514    0.0000 C   0  0
   -3.6115    0.5789    0.0000 N   0  0
   -3.3581   -0.2028    0.0000 C   0  0
   -3.3625    2.7091    0.0000 C   0  0
   -2.5532    2.8785    0.0000 N   0  0
   -3.9166    3.3180    0.0000 O   0  0
   -3.9072   -0.8148    0.0000 C   0  0
   -3.6543   -1.5958    0.0000 C   0  0
   -2.8438   -1.7674    0.0000 C   0  0
   -2.2950   -1.1485    0.0000 C   0  0
   -2.5504   -0.3695    0.0000 C   0  0
   -2.0025    2.2647    0.0000 C   0  0
   -1.1960    2.4318    0.0000 C   0  0
   -1.0038    3.3009    0.0000 N   0  0
   -1.4905    3.8323    0.0000 C   0  0
   -2.3026    3.6614    0.0000 C   0  0
   -2.3042    1.2541    0.0000 C   0  0
   -1.8893    0.5410    0.0000 C   0  0
   -1.5917    1.6708    0.0000 C   0  0
   -2.3041   -0.1727    0.0000 C   0  0
   -1.8899   -0.8853    0.0000 C   0  0
   -1.0641   -0.8830    0.0000 C   0  0
   -0.6541   -0.1621    0.0000 C   0  0
   -1.0707    0.5475    0.0000 C   0  0
  2  6  1  0
  3  4  1  0
  5  6  2  0
  6  7  1  0
  7  8  2  0
  8  9  1  0
  9  5  1  0
  9 10  1  0
  7 11  1  0
 11 12  1  0
 11 13  2  0
 10 14  2  0
 14 15  1  0
 15 16  2  0
 16 17  1  0
 17 18  2  0
 18 10  1  0
 12 19  1  0
 12 23  1  0
 19 20  1  0
 20 21  1  0
 21 22  1  0
 22 23  1  0
  5  1  1  0
  1  4  2  0
  3  2  2  0
  8 24  1  0
 24 25  1  0
 24 26  1  0
 25 27  2  0
 27 28  1  0
 28 29  2  0
 29 30  1  0
 30 31  2  0
 31 25  1  0
M  END
>  <ID_NEW>
CPDRE1291

>  <pIC50>
5.991399828238082

$$$$

  SciTegic12180813562D

 34 38  0  0  0  0            999 V2000
    0.6948   -8.6007    0.0000 C   0  0
    0.1078   -9.1819    0.0000 C   0  0
    0.3181   -9.9789    0.0000 C   0  0
    1.1150  -10.1957    0.0000 C   0  0
    1.7015   -9.6094    0.0000 C   0  0
    1.4881   -8.8147    0.0000 C   0  0
    2.5099   -7.5505    0.0000 C   0  0
    2.2926   -8.3443    0.0000 C   0  0
    2.8708   -8.9274    0.0000 C   0  0
    3.6664   -8.7179    0.0000 C   0  0
    3.8807   -7.9200    0.0000 C   0  0
    3.3010   -7.3403    0.0000 C   0  0
    1.6917   -5.5375    0.0000 N   0  0
    2.2750   -6.1208    0.0000 C   0  0
    3.0674   -5.9085    0.0000 C   0  0
    3.2830   -5.1128    0.0000 N   0  0
    2.6997   -4.5295    0.0000 C   0  0
    1.9008   -4.7418    0.0000 C   0  0
    0.4861   -7.8075    0.0000 N   0  0
    0.9731   -7.1411    0.0000 C   0  0
    0.4898   -6.4721    0.0000 C   0  0
   -0.2958   -6.7250    0.0000 C   0  0
   -0.2981   -7.5504    0.0000 C   0  0
   -1.7223   -6.7291    0.0000 C   0  0
   -1.7234   -7.5565    0.0000 C   0  0
   -1.0086   -7.9694    0.0000 C   0  0
   -1.0104   -6.3164    0.0000 N   0  0
    1.7958   -7.1375    0.0000 O   0  0
    0.8958   -5.7542    0.0000 C   0  0
    0.3083   -5.1667    0.0000 O   0  0
    3.4750   -6.6208    0.0000 C   0  0
    3.8917   -5.9083    0.0000 C   0  0
    1.4667   -8.3375    0.0000 C   0  0
    2.7125   -6.7500    0.0000 C   0  0
 15 16  1  0
 16 17  1  0
 17 18  1  0
 22 23  1  0
  4  5  1  0
  9 10  2  0
 20 21  2  0
  2  3  1  0
 10 11  1  0
  5  6  2  0
 19 20  1  0
 21 22  1  0
 23 19  1  0
 11 12  2  0
 12  7  1  0
 24 25  2  0
 13 14  1  0
 25 26  1  0
 26 23  2  0
  6  1  1  0
 22 27  2  0
 27 24  1  0
 19  1  1  0
  1  2  2  0
 20 28  1  0
 28  7  1  0
  3  4  2  0
 21 29  1  0
  7  8  2  0
 29 30  2  0
 29 13  1  0
 15 31  1  0
  8  9  1  0
 15 32  1  0
 13 18  1  0
  8 33  1  0
 14 15  1  0
 12 34  1  0
M  END
>  <ID_NEW>
CPDRE1292

>  <pIC50>
5.962573502059376

$$$$

  -MTS-   10172316392D 0   0.00000     0.00000     0

 35 39  0  0  1  0  0  0  0  0999 V2000
    5.7830   -3.7910    0.0000 C   0  0  0  0  0  0  0  0  0  0  0  0
    5.9940   -4.5850    0.0000 C   0  0  0  0  0  0  0  0  0  0  0  0
    6.7860   -4.7980    0.0000 C   0  0  0  0  0  0  0  0  0  0  0  0
    7.3670   -4.2180    0.0000 C   0  0  0  0  0  0  0  0  0  0  0  0
    7.1520   -3.4210    0.0000 C   0  0  0  0  0  0  0  0  0  0  0  0
    6.3600   -3.2120    0.0000 C   0  0  0  0  0  0  0  0  0  0  0  0
    5.0670   -3.3750    0.0000 O   0  0  0  0  0  0  0  0  0  0  0  0
    5.4090   -5.1680    0.0000 C   0  0  0  0  0  0  0  0  0  0  0  0
    6.1450   -2.4160    0.0000 C   0  0  0  0  0  0  0  0  0  0  0  0
    3.3500   -1.8250    0.0000 N   0  0  0  0  0  0  0  0  0  0  0  0
    3.5420   -1.0960    0.0000 C   0  0  0  0  0  0  0  0  0  0  0  0
    3.0090   -0.5680    0.0000 C   0  0  1  0  0  0  0  0  0  0  0  0
    2.2820   -0.7650    0.0000 N   0  0  0  0  0  0  0  0  0  0  0  0
    2.0900   -1.4940    0.0000 C   0  0  0  0  0  0  0  0  0  0  0  0
    2.6260   -2.0260    0.0000 C   0  0  0  0  0  0  0  0  0  0  0  0
    1.8650   -3.5820    0.0000 C   0  0  0  0  0  0  0  0  0  0  0  0
    1.9810   -4.3210    0.0000 C   0  0  0  0  0  0  0  0  0  0  0  0
    2.6810   -4.5940    0.0000 C   0  0  0  0  0  0  0  0  0  0  0  0
    2.4490   -3.1120    0.0000 N   0  0  0  0  0  0  0  0  0  0  0  0
    3.8160   -3.0380    0.0000 C   0  0  0  0  0  0  0  0  0  0  0  0
    3.1490   -3.3800    0.0000 C   0  0  0  0  0  0  0  0  0  0  0  0
    3.2650   -4.1230    0.0000 C   0  0  0  0  0  0  0  0  0  0  0  0
    4.0040   -4.2410    0.0000 N   0  0  0  0  0  0  0  0  0  0  0  0
    4.3450   -3.5720    0.0000 C   0  0  0  0  0  0  0  0  0  0  0  0
    4.3450   -4.9110    0.0000 C   0  0  0  0  0  0  0  0  0  0  0  0
    3.9350   -5.5370    0.0000 C   0  0  0  0  0  0  0  0  0  0  0  0
    5.0930   -4.9490    0.0000 C   0  0  0  0  0  0  0  0  0  0  0  0
    4.2720   -6.2040    0.0000 C   0  0  0  0  0  0  0  0  0  0  0  0
    5.4300   -5.6150    0.0000 C   0  0  0  0  0  0  0  0  0  0  0  0
    5.0240   -6.2430    0.0000 C   0  0  0  0  0  0  0  0  0  0  0  0
    3.9360   -2.3030    0.0000 C   0  0  0  0  0  0  0  0  0  0  0  0
    4.6370   -2.0300    0.0000 O   0  0  0  0  0  0  0  0  0  0  0  0
    3.2010    0.1570    0.0000 C   0  0  0  0  0  0  0  0  0  0  0  0
    3.9210    0.3540    0.0000 C   0  0  0  0  0  0  0  0  0  0  0  0
    4.1120    1.0790    0.0000 C   0  0  0  0  0  0  0  0  0  0  0  0
  5  6  2  0  0  0  0
  6  1  1  0  0  0  0
  7  1  1  0  0  0  0
  2  8  1  0  0  0  0
  6  9  1  0  0  0  0
  1  2  2  0  0  0  0
  2  3  1  0  0  0  0
  3  4  2  0  0  0  0
  4  5  1  0  0  0  0
 21 22  2  0  0  0  0
 17 18  2  0  0  0  0
 18 22  1  0  0  0  0
 16 17  1  0  0  0  0
 21 19  1  0  0  0  0
 20 21  1  0  0  0  0
 20 31  1  0  0  0  0
 31 32  2  0  0  0  0
 22 23  1  0  0  0  0
 23 24  1  0  0  0  0
 24 20  2  0  0  0  0
 25 26  2  0  0  0  0
 25 27  1  0  0  0  0
 25 23  1  0  0  0  0
 31 10  1  0  0  0  0
 10 11  1  0  0  0  0
 10 15  1  0  0  0  0
 11 12  1  0  0  0  0
 12 13  1  0  0  0  0
 13 14  1  0  0  0  0
 14 15  1  0  0  0  0
 12 33  1  1  0  0  0
 26 28  1  0  0  0  0
 33 34  1  0  0  0  0
 27 29  2  0  0  0  0
 34 35  1  0  0  0  0
 28 30  2  0  0  0  0
 29 30  1  0  0  0  0
 19 16  2  0  0  0  0
 24  7  1  0  0  0  0
M  END
>  <ID_NEW>
CPDRE1293

>  <pIC50>
5.928117992693874

$$$$

  SciTegic12180813462D

 41 46  0  0  0  0            999 V2000
    0.2009   -5.1662    0.0000 C   0  0
   -0.5977   -5.3771    0.0000 C   0  0
   -0.8128   -6.1726    0.0000 C   0  0
   -0.2304   -6.7579    0.0000 C   0  0
    0.5702   -6.5423    0.0000 C   0  0
    0.7816   -5.7472    0.0000 C   0  0
    3.2686   -5.8252    0.0000 C   0  0
    2.5529   -6.2317    0.0000 C   0  0
    2.5481   -7.0528    0.0000 C   0  0
    3.2582   -7.4685    0.0000 C   0  0
    3.9746   -7.0570    0.0000 C   0  0
    3.9759   -6.2372    0.0000 C   0  0
    5.0628   -5.6466    0.0000 C   0  0
    4.6460   -6.3570    0.0000 C   0  0
    5.0528   -7.0709    0.0000 C   0  0
    5.8761   -7.0758    0.0000 C   0  0
    6.2910   -6.3607    0.0000 C   0  0
    5.8819   -5.6496    0.0000 C   0  0
    4.0551   -2.3452    0.0000 N   0  0
    4.6380   -1.7597    0.0000 C   0  0
    4.4220   -0.9643    0.0000 C   0  0
    3.6236   -0.7532    0.0000 N   0  0
    3.0413   -1.3436    0.0000 C   0  0
    3.2604   -2.1368    0.0000 C   0  0
    2.6026   -4.5203    0.0000 C   0  0
    2.8157   -3.7223    0.0000 C   0  0
    2.2319   -3.1408    0.0000 C   0  0
    1.4347   -3.3560    0.0000 N   0  0
    1.2246   -4.1580    0.0000 C   0  0
    1.8100   -4.7361    0.0000 N   0  0
    3.2750   -5.0041    0.0000 N   0  0
    3.9443   -4.5217    0.0000 C   0  0
    3.6875   -3.7334    0.0000 C   0  0
    0.4208   -4.3667    0.0000 O   0  0
    4.6542   -4.9333    0.0000 O   0  0
    4.2708   -3.1458    0.0000 C   0  0
    5.0667   -3.3583    0.0000 O   0  0
    6.2875   -4.9292    0.0000 C   0  0
    4.6333   -7.7833    0.0000 F   0  0
    1.1500   -7.1250    0.0000 F   0  0
   -1.1875   -4.7875    0.0000 C   0  0
 25 31  1  0
 16 17  1  0
 29 34  1  0
  8  9  1  0
 32 35  1  0
 31  7  1  0
 35 13  1  0
 17 18  2  0
 33 36  1  0
 18 13  1  0
 36 37  2  0
 36 19  1  0
 34  1  1  0
  4  5  1  0
 18 38  1  0
  9 10  2  0
 15 39  1  0
 19 20  1  0
  5 40  1  0
  2  3  1  0
  2 41  1  0
 20 21  1  0
 10 11  1  0
 21 22  1  0
  5  6  2  0
 22 23  1  0
 11 12  2  0
 23 24  1  0
 24 19  1  0
 12  7  1  0
  6  1  1  0
 25 26  2  0
  1  2  2  0
 26 27  1  0
 13 14  2  0
 27 28  2  0
  3  4  2  0
 28 29  1  0
 14 15  1  0
 29 30  2  0
 30 25  1  0
  7  8  2  0
 15 16  2  0
 32 33  2  0
 31 32  1  0
 33 26  1  0
M  END
>  <ID_NEW>
CPDRE1294

>  <pIC50>
5.913640169325252

$$$$

  SciTegic12180813522D

 34 38  0  0  0  0            999 V2000
    1.6917    0.1167    0.0000 N   0  0
    2.1000   -0.5958    0.0000 C   0  0
    2.9167   -0.5984    0.0000 C   0  0
    3.3312    0.1098    0.0000 N   0  0
    2.9229    0.8223    0.0000 C   0  0
    2.1000    0.8266    0.0000 C   0  0
   -0.1356   -2.5627    0.0000 C   0  0
   -0.8512   -2.9692    0.0000 C   0  0
   -0.8561   -3.7903    0.0000 C   0  0
   -0.1460   -4.2060    0.0000 C   0  0
    0.5704   -3.7945    0.0000 C   0  0
    0.5718   -2.9747    0.0000 C   0  0
    1.9182   -2.0547    0.0000 C   0  0
    1.7009   -2.8485    0.0000 C   0  0
    2.2791   -3.4315    0.0000 C   0  0
    3.0747   -3.2220    0.0000 C   0  0
    3.2890   -2.4241    0.0000 C   0  0
    2.7093   -1.8445    0.0000 C   0  0
   -0.8016   -1.2578    0.0000 C   0  0
   -0.5884   -0.4598    0.0000 C   0  0
   -1.1723    0.1217    0.0000 C   0  0
   -1.9695   -0.0935    0.0000 C   0  0
   -2.1795   -0.8955    0.0000 C   0  0
   -1.5942   -1.4736    0.0000 N   0  0
   -0.1292   -1.7416    0.0000 N   0  0
    0.5401   -1.2592    0.0000 C   0  0
    0.2833   -0.4709    0.0000 C   0  0
    1.3333   -1.4708    0.0000 O   0  0
    0.8667    0.1167    0.0000 C   0  0
    0.6500    0.9167    0.0000 O   0  0
   -0.9625    0.9250    0.0000 C   0  0
   -1.3792    1.6417    0.0000 C   0  0
    2.9208   -1.0417    0.0000 C   0  0
    2.0583   -4.2250    0.0000 F   0  0
  9 10  2  0
 21 22  2  0
  1  6  1  0
 22 23  1  0
 10 11  1  0
 23 24  2  0
 24 19  1  0
  2  3  1  0
 11 12  2  0
 26 27  2  0
 12  7  1  0
 25 26  1  0
 27 20  1  0
 19 25  1  0
 25  7  1  0
  3  4  1  0
 26 28  1  0
 28 13  1  0
  4  5  1  0
 27 29  1  0
 13 14  2  0
 29 30  2  0
 29  1  1  0
  5  6  1  0
 21 31  1  0
 14 15  1  0
 31 32  1  0
 18 33  1  0
 15 16  2  0
 15 34  1  0
  1  2  1  0
 16 17  1  0
  7  8  2  0
 17 18  2  0
 18 13  1  0
  8  9  1  0
 19 20  2  0
 20 21  1  0
M  END
>  <ID_NEW>
CPDRE1295

>  <pIC50>
5.910094888560601

$$$$

  SciTegic12180813562D

 38 42  0  0  0  0            999 V2000
   -4.0357   -0.3363    0.0000 C   0  0
   -4.7465   -0.7512    0.0000 C   0  0
   -4.7395   -1.5775    0.0000 C   0  0
   -4.0256   -1.9810    0.0000 C   0  0
   -3.3225   -0.7435    0.0000 C   0  0
   -3.3194   -1.5697    0.0000 C   0  0
   -2.5327   -1.8221    0.0000 N   0  0
   -2.0495   -1.1519    0.0000 C   0  0
   -2.5376   -0.4853    0.0000 C   0  0
   -2.2855    0.3002    0.0000 C   0  0
   -1.4792    0.4747    0.0000 O   0  0
   -2.8397    0.9112    0.0000 N   0  0
   -2.5839    1.6952    0.0000 C   0  0
   -3.1343    2.3049    0.0000 C   0  0
   -3.9418    2.1345    0.0000 N   0  0
   -4.1961    1.3487    0.0000 C   0  0
   -3.6428    0.7332    0.0000 C   0  0
   -1.2245   -1.1489    0.0000 O   0  0
   -0.4000   -1.1459    0.0000 C   0  0
    0.0130   -1.8607    0.0000 C   0  0
    0.8367   -1.8581    0.0000 C   0  0
    1.2472   -1.1420    0.0000 C   0  0
    0.8279   -0.4271    0.0000 C   0  0
    0.0056   -0.4333    0.0000 C   0  0
    1.2514   -2.5713    0.0000 F   0  0
   -0.4118    0.2784    0.0000 C   0  0
   -5.4637   -0.3434    0.0000 O   0  0
   -2.2749   -2.6057    0.0000 C   0  0
   -2.8265   -3.2186    0.0000 C   0  0
   -2.5692   -4.0016    0.0000 C   0  0
   -1.7609   -4.1708    0.0000 C   0  0
   -1.2102   -3.5507    0.0000 C   0  0
   -1.4704   -2.7701    0.0000 C   0  0
   -5.4503   -1.9962    0.0000 Cl  0  0
   -2.4250    2.7208    0.0000 C   0  0
   -1.7125    2.3083    0.0000 C   0  0
   -1.0000    2.7208    0.0000 C   0  0
   -0.2875    2.3083    0.0000 C   0  0
  6  7  1  0
  7  8  1  0
  8  9  2  0
  9  5  1  0
  5  1  1  0
  1  2  2  0
  2  3  1  0
  3  4  2  0
  4  6  1  0
  5  6  2  0
  9 10  1  0
 10 11  2  0
 10 12  1  0
 12 13  1  0
 12 17  1  0
 13 14  1  0
 14 15  1  0
 15 16  1  0
 16 17  1  0
  8 18  1  0
 18 19  1  0
 19 20  2  0
 20 21  1  0
 21 22  2  0
 22 23  1  0
 23 24  2  0
 24 19  1  0
 21 25  1  0
 24 26  1  0
  2 27  1  0
  7 28  1  0
 28 29  2  0
 29 30  1  0
 30 31  2  0
 31 32  1  0
 32 33  2  0
 33 28  1  0
  3 34  1  0
 14 35  1  0
 35 36  1  0
 36 37  1  0
 37 38  1  0
M  END
>  <ID_NEW>
CPDRE1296

>  <pIC50>
5.906578314837764

$$$$

  SciTegic12180813082D

 32 36  0  0  0  0            999 V2000
   -3.4902   -0.7028    0.0000 N   0  0
   -3.0083   -0.0313    0.0000 C   0  0
   -3.4981    0.6344    0.0000 C   0  0
   -3.2307   -1.4859    0.0000 C   0  0
   -3.2477    1.4205    0.0000 C   0  0
   -2.4418    1.5967    0.0000 O   0  0
   -3.7823   -2.0975    0.0000 C   0  0
   -3.5233   -2.8800    0.0000 C   0  0
   -2.7146   -3.0475    0.0000 C   0  0
   -2.1653   -2.4262    0.0000 C   0  0
   -2.4271   -1.6461    0.0000 C   0  0
   -3.8033    2.0303    0.0000 N   0  0
   -3.5495    2.8176    0.0000 C   0  0
   -4.1012    3.4261    0.0000 C   0  0
   -4.9084    3.2539    0.0000 N   0  0
   -5.1608    2.4675    0.0000 C   0  0
   -4.6062    1.8533    0.0000 C   0  0
   -2.1833   -0.0264    0.0000 O   0  0
   -1.7666   -0.7384    0.0000 C   0  0
   -2.1766   -1.4542    0.0000 C   0  0
   -0.9381   -2.1635    0.0000 C   0  0
   -0.5276   -1.4467    0.0000 C   0  0
   -1.7634   -2.1641    0.0000 C   0  0
   -0.9425   -0.7306    0.0000 C   0  0
   -4.2777   -0.4520    0.0000 C   0  0
   -4.2793    0.3722    0.0000 C   0  0
   -4.9927    0.7811    0.0000 C   0  0
   -5.7050    0.3670    0.0000 C   0  0
   -5.6994   -0.4603    0.0000 C   0  0
   -4.9855   -0.8655    0.0000 C   0  0
   -4.5897   -1.9279    0.0000 O   0  0
   -5.1403   -2.5422    0.0000 C   0  0
 12 17  1  0
 13 14  1  0
 14 15  1  0
 15 16  1  0
 16 17  1  0
  2 18  1  0
 18 19  1  0
 19 20  2  0
 21 22  1  0
 19 24  1  0
 20 23  1  0
 23 21  2  0
 22 24  2  0
 25 26  2  0
 26 27  1  0
 27 28  2  0
 28 29  1  0
 29 30  2  0
 30 25  1  0
  7 31  1  0
 31 32  1  0
 25  1  1  0
  1  2  1  0
  2  3  2  0
  3 26  1  0
  1  4  1  0
  3  5  1  0
  5  6  2  0
  4  7  2  0
  7  8  1  0
  8  9  2  0
  9 10  1  0
 10 11  2  0
 11  4  1  0
  5 12  1  0
 12 13  1  0
M  END
>  <ID_NEW>
CPDRE1297

>  <pIC50>
5.899629454882436

$$$$

  SciTegic12180813072D

 31 35  0  0  0  0            999 V2000
   -5.6338    0.7738    0.0000 C   0  0
   -5.7053   -0.0521    0.0000 C   0  0
   -5.0168   -0.5149    0.0000 C   0  0
   -4.8824    1.1338    0.0000 C   0  0
   -4.2026    0.6634    0.0000 C   0  0
   -4.2657   -0.1637    0.0000 C   0  0
   -3.5059   -0.4819    0.0000 N   0  0
   -2.9613    0.1485    0.0000 C   0  0
   -3.3937    0.8572    0.0000 C   0  0
   -3.3034   -1.2873    0.0000 C   0  0
   -3.9118   -1.8602    0.0000 C   0  0
   -3.7180   -2.6693    0.0000 C   0  0
   -2.9237   -2.9009    0.0000 C   0  0
   -2.3195   -2.3319    0.0000 C   0  0
   -2.5135   -1.5227    0.0000 C   0  0
   -3.0747    1.6213    0.0000 C   0  0
   -2.2563    1.7293    0.0000 O   0  0
   -3.5869    2.2825    0.0000 N   0  0
   -3.2640    3.0464    0.0000 C   0  0
   -3.7719    3.7071    0.0000 C   0  0
   -4.5946    3.5994    0.0000 N   0  0
   -4.9092    2.8350    0.0000 C   0  0
   -4.4058    2.1702    0.0000 C   0  0
   -2.1590   -0.0570    0.0000 O   0  0
   -1.3619    0.1657    0.0000 C   0  0
   -0.7764   -0.4213    0.0000 C   0  0
    0.0211   -0.2089    0.0000 C   0  0
    0.2344    0.5900    0.0000 C   0  0
   -0.3561    1.1765    0.0000 C   0  0
   -1.1515    0.9610    0.0000 C   0  0
   -0.1458    1.9792    0.0000 Cl  0  0
 16 17  2  0
 16 18  1  0
 18 19  1  0
 18 23  1  0
 24 25  1  0
 25 26  2  0
 26 27  1  0
 27 28  2  0
 28 29  1  0
 29 30  2  0
 30 25  1  0
 19 20  1  0
 20 21  1  0
 21 22  1  0
 29 31  1  0
 22 23  1  0
  1  2  2  0
  2  3  1  0
  3  6  2  0
  5  4  2  0
  4  1  1  0
  5  6  1  0
  8 24  1  0
  6  7  1  0
  7  8  1  0
  8  9  2  0
  9  5  1  0
  7 10  1  0
 10 11  2  0
 11 12  1  0
 12 13  2  0
 13 14  1  0
 14 15  2  0
 15 10  1  0
  9 16  1  0
M  END
>  <ID_NEW>
CPDRE1298

>  <pIC50>
5.896196279044043

$$$$

  SciTegic12180813462D

 34 38  0  0  0  0            999 V2000
   -3.0380   -0.2804    0.0000 C   0  0
   -3.0348   -1.1804    0.0000 C   0  0
   -2.2549   -1.6275    0.0000 C   0  0
   -2.2614    0.1683    0.0000 C   0  0
   -1.4817   -0.2789    0.0000 C   0  0
   -1.4825   -1.1747    0.0000 C   0  0
   -0.6258   -1.4518    0.0000 N   0  0
   -0.0968   -0.7239    0.0000 C   0  0
   -0.6269    0.0002    0.0000 C   0  0
   -0.3466   -2.3065    0.0000 C   0  0
   -0.3540    0.8570    0.0000 C   0  0
    0.5251    1.0429    0.0000 O   0  0
   -0.9437   -2.9734    0.0000 C   0  0
   -0.6646   -3.8282    0.0000 C   0  0
    0.2116   -4.0118    0.0000 C   0  0
    0.8129   -3.3449    0.0000 C   0  0
    0.5338   -2.4901    0.0000 C   0  0
   -0.9559    1.5237    0.0000 N   0  0
   -0.6789    2.3763    0.0000 C   0  0
   -1.2808    3.0430    0.0000 C   0  0
   -2.1599    2.8529    0.0000 N   0  0
   -2.4370    2.0003    0.0000 C   0  0
   -1.8350    1.3337    0.0000 C   0  0
   -3.8179    0.1668    0.0000 O   0  0
   -3.8170    1.0626    0.0000 C   0  0
    1.3594   -0.1882    0.0000 C   0  0
    2.2455   -0.3413    0.0000 C   0  0
    1.0516    0.6535    0.0000 C   0  0
    0.7852   -0.8769    0.0000 O   0  0
    2.8238    0.3474    0.0000 C   0  0
    2.5575   -1.1872    0.0000 C   0  0
    1.6257    1.3421    0.0000 C   0  0
    2.5119    1.1891    0.0000 C   0  0
    1.3180    2.1840    0.0000 F   0  0
 11 12  2  0
 10 13  2  0
 13 14  1  0
 14 15  2  0
 15 16  1  0
 16 17  2  0
 17 10  1  0
 11 18  1  0
 18 19  1  0
 18 23  1  0
 19 20  1  0
 20 21  1  0
 21 22  1  0
 22 23  1  0
  1 24  1  0
 24 25  1  0
  1  2  2  0
  2  3  1  0
  3  6  2  0
  5  4  2  0
  4  1  1  0
  5  6  1  0
  6  7  1  0
 26 27  2  0
 26 28  1  0
 26 29  1  0
 27 30  1  0
 27 31  1  0
 28 32  2  0
 30 33  2  0
 32 34  1  0
 32 33  1  0
  8 29  1  0
  7  8  1  0
  8  9  2  0
  9  5  1  0
  7 10  1  0
  9 11  1  0
M  END
>  <ID_NEW>
CPDRE1299

>  <pIC50>
5.8696662315049934

$$$$

  SciTegic12180813062D

 28 29  0  0  0  0            999 V2000
    1.9167    2.0458    0.0000 N   0  0
    2.7667    2.1750    0.0000 C   0  0
   -2.5833    2.9042    0.0000 C   0  0
   -3.4417    2.7708    0.0000 C   0  0
   -2.0417    2.2208    0.0000 C   0  0
    1.3833    2.7250    0.0000 C   0  0
   -3.7583    1.9708    0.0000 C   0  0
   -4.6167    1.8500    0.0000 C   0  0
   -2.2667    3.7042    0.0000 C   0  0
    3.1958    1.6417    0.0000 N   0  0
   -1.1958    2.3542    0.0000 C   0  0
   -5.1500    2.5208    0.0000 C   0  0
   -3.9792    3.4542    0.0000 C   0  0
    1.6333    3.3708    0.0000 O   0  0
   -4.8375    3.3333    0.0000 C   0  0
    3.0125    2.8125    0.0000 N   0  0
   -0.8667    3.1542    0.0000 C   0  0
   -4.8708    1.2042    0.0000 F   0  0
    0.5250    2.6000    0.0000 C   0  0
   -1.4083    3.8375    0.0000 C   0  0
   -2.3667    1.4208    0.0000 O   0  0
   -0.0083    3.2750    0.0000 C   0  0
   -2.1417   -0.0583    0.0000 C   0  0
   -1.9167   -1.5458    0.0000 O   0  0
   -1.8167    0.7542    0.0000 C   0  0
   -5.8375    2.4250    0.0000 C   0  0
   -1.6000   -0.7375    0.0000 C   0  0
   -1.4875   -2.0875    0.0000 C   0  0
 19  6  1  0
 20 17  2  0
 21  5  1  0
 22 19  1  0
 23 25  1  0
 24 27  1  0
 25 21  1  0
 26 12  1  0
 27 23  1  0
 28 24  1  0
  3  9  2  0
  8 12  1  0
  2  1  1  0
  3  5  1  0
  4  3  1  0
  5 11  2  0
  6  1  1  0
  7  4  1  0
  8  7  2  0
  9 20  1  0
 10  2  2  0
 11 17  1  0
 12 15  2  0
 13  4  2  0
 14  6  2  0
 15 13  1  0
 16  2  1  0
 17 22  1  0
 18  8  1  0
M  END
>  <ID_NEW>
CPDRE1300

>  <pIC50>
5.84163750790475

$$$$

  SciTegic12180813512D

 32 36  0  0  0  0            999 V2000
    2.2228   -1.7752    0.0000 C   0  0
    1.5071   -2.1817    0.0000 C   0  0
    1.5023   -3.0028    0.0000 C   0  0
    2.2124   -3.4185    0.0000 C   0  0
    2.9288   -3.0070    0.0000 C   0  0
    2.9301   -2.1872    0.0000 C   0  0
    4.1003   -1.3966    0.0000 C   0  0
    3.6836   -2.1070    0.0000 C   0  0
    4.0903   -2.8209    0.0000 C   0  0
    4.9137   -2.8258    0.0000 C   0  0
    5.3286   -2.1107    0.0000 C   0  0
    4.9194   -1.3996    0.0000 C   0  0
    4.0500    0.9042    0.0000 N   0  0
    4.4584    0.1917    0.0000 C   0  0
    5.2750    0.1891    0.0000 C   0  0
    5.6896    0.8973    0.0000 N   0  0
    5.2812    1.6098    0.0000 C   0  0
    4.4584    1.6141    0.0000 C   0  0
    1.5568   -0.4703    0.0000 C   0  0
    1.7699    0.3277    0.0000 C   0  0
    1.1861    0.9092    0.0000 N   0  0
    0.3889    0.6940    0.0000 C   0  0
    0.1788   -0.1080    0.0000 C   0  0
    0.7642   -0.6861    0.0000 C   0  0
    2.2292   -0.9541    0.0000 N   0  0
    2.8985   -0.4717    0.0000 C   0  0
    2.6417    0.3166    0.0000 C   0  0
    3.6917   -0.6833    0.0000 C   0  0
    3.2250    0.9042    0.0000 C   0  0
    2.8084    1.6208    0.0000 O   0  0
    5.3250   -0.6792    0.0000 F   0  0
    6.1208   -2.3208    0.0000 F   0  0
 10 11  1  0
 21 22  2  0
  5  6  2  0
 22 23  1  0
 11 12  2  0
 23 24  2  0
 24 19  1  0
 12  7  1  0
 13 14  1  0
 26 27  2  0
  6  1  1  0
 25 26  1  0
 27 20  1  0
 19 25  1  0
 25  1  1  0
  1  2  2  0
 26 28  1  0
 28  7  1  0
  3  4  2  0
 27 29  1  0
  7  8  2  0
 29 30  2  0
 29 13  1  0
  8  9  1  0
 13 18  1  0
 14 15  1  0
 15 16  1  0
 16 17  1  0
 17 18  1  0
  4  5  1  0
 12 31  1  0
  9 10  2  0
 19 20  2  0
  2  3  1  0
 11 32  1  0
 20 21  1  0
M  END
>  <ID_NEW>
CPDRE1301

>  <pIC50>
5.835647144215562

$$$$

  SciTegic12180813072D

 31 35  0  0  0  0            999 V2000
   -5.7056    0.3751    0.0000 C   0  0
   -5.7068   -0.4523    0.0000 C   0  0
   -4.9920   -0.8652    0.0000 C   0  0
   -4.9938    0.7878    0.0000 C   0  0
   -4.2784    0.3787    0.0000 C   0  0
   -4.2736   -0.4477    0.0000 C   0  0
   -3.4861   -0.6986    0.0000 N   0  0
   -3.0041   -0.0271    0.0000 C   0  0
   -3.4939    0.6386    0.0000 C   0  0
   -3.2266   -1.4817    0.0000 C   0  0
   -3.7781   -2.0933    0.0000 C   0  0
   -3.5192   -2.8758    0.0000 C   0  0
   -2.7104   -3.0432    0.0000 C   0  0
   -2.1611   -2.4220    0.0000 C   0  0
   -2.4230   -1.6419    0.0000 C   0  0
   -3.2436    1.4247    0.0000 C   0  0
   -2.4376    1.6010    0.0000 O   0  0
   -3.7992    2.0346    0.0000 N   0  0
   -3.5468    2.8176    0.0000 C   0  0
   -4.0985    3.4261    0.0000 C   0  0
   -4.9057    3.2539    0.0000 N   0  0
   -5.1582    2.4675    0.0000 C   0  0
   -4.6035    1.8533    0.0000 C   0  0
   -2.1791   -0.0222    0.0000 C   0  0
   -1.7624   -0.7343    0.0000 C   0  0
   -2.1733   -1.4498    0.0000 C   0  0
   -1.7573   -2.1614    0.0000 C   0  0
   -0.9314   -2.1570    0.0000 C   0  0
   -0.5233   -1.4351    0.0000 C   0  0
   -0.9417   -0.7265    0.0000 C   0  0
    0.3017   -1.4273    0.0000 C   0  0
 18 19  1  0
 18 23  1  0
 19 20  1  0
 20 21  1  0
 21 22  1  0
 22 23  1  0
  8 24  1  0
 24 25  1  0
 25 26  2  0
 26 27  1  0
 27 28  2  0
 28 29  1  0
 29 30  2  0
 30 25  1  0
 29 31  1  0
  1  2  2  0
  2  3  1  0
  3  6  2  0
  5  4  2  0
  4  1  1  0
  5  6  1  0
  6  7  1  0
  7  8  1  0
  8  9  2  0
  9  5  1  0
  7 10  1  0
 10 11  2  0
 11 12  1  0
 12 13  2  0
 13 14  1  0
 14 15  2  0
 15 10  1  0
  9 16  1  0
 16 17  2  0
 16 18  1  0
M  END
>  <ID_NEW>
CPDRE1302

>  <pIC50>
5.823908740944319

$$$$

  SciTegic04131810002D

 31 32  0  0  0  0            999 V2000
    4.0486   -1.0833    0.0000 C   0  0
    4.0474   -1.9107    0.0000 C   0  0
    4.7623   -2.3235    0.0000 C   0  0
    5.4787   -1.9102    0.0000 C   0  0
    5.4758   -1.0797    0.0000 C   0  0
    4.7605   -0.6705    0.0000 C   0  0
    4.7621   -3.1485    0.0000 O   0  0
    4.0475   -3.5609    0.0000 C   0  0
    4.0473   -4.3859    0.0000 C   0  0
    3.3327   -4.7982    0.0000 C   0  0
    3.3325   -5.6232    0.0000 O   0  0
    2.6179   -6.0355    0.0000 C   0  0
    6.1888   -0.6645    0.0000 C   0  0
    3.3326   -2.3226    0.0000 C   0  0
    2.6201   -1.9081    0.0000 C   0  0
    1.9058   -2.3193    0.0000 C   0  0
    1.9047   -3.1452    0.0000 C   0  0
    2.6239   -3.5581    0.0000 C   0  0
    3.3353   -3.1445    0.0000 C   0  0
    1.1905   -3.5581    0.0000 F   0  0
    6.9048   -1.0743    0.0000 C   0  0
    7.6177   -0.6591    0.0000 C   0  0
    8.3337   -1.0689    0.0000 N   0  0
    7.6146    0.1659    0.0000 O   0  0
    9.0466   -0.6537    0.0000 C   0  0
    9.7626   -1.0635    0.0000 N   0  0
    9.0435    0.1713    0.0000 N   0  0
    9.7657   -1.8885    0.0000 C   0  0
   10.4817   -2.2983    0.0000 C   0  0
   10.4848   -3.1233    0.0000 C   0  0
   11.2008   -3.5331    0.0000 C   0  0
 15 16  1  0
  7  8  1  0
 16 17  2  0
 17 18  1  0
  8  9  1  0
 18 19  2  0
 19 14  1  0
  4  5  1  0
 17 20  1  0
  9 10  1  0
 13 21  1  0
  2  3  1  0
 21 22  1  0
 10 11  1  0
 22 23  1  0
  5  6  2  0
 22 24  2  0
 11 12  1  0
  6  1  1  0
 23 25  1  0
  5 13  1  0
 25 26  1  0
  1  2  2  0
 25 27  2  0
  2 14  1  0
 26 28  1  0
  3  7  1  0
 28 29  1  0
 14 15  2  0
 29 30  1  0
  3  4  2  0
 30 31  1  0
M  END
>  <ID_NEW>
CPDRE1303

>  <pIC50>
5.815166666066646

$$$$

  SciTegic12180813082D

 37 41  0  0  0  0            999 V2000
   -2.5701    2.2591    0.0000 C   0  0
   -3.1115    2.4456    0.0000 C   0  0
   -2.5701    1.6912    0.0000 C   0  0
   -2.0635    2.5601    0.0000 C   0  0
   -3.4564    1.9792    0.0000 C   0  0
   -3.2857    2.9952    0.0000 C   0  0
   -3.1177    1.5053    0.0000 N   0  0
   -2.0690    1.3907    0.0000 C   0  0
   -1.5576    2.2672    0.0000 C   0  0
   -4.0298    1.9853    0.0000 O   0  0
   -2.8897    3.4219    0.0000 O   0  0
   -1.5576    1.6822    0.0000 C   0  0
   -3.1209    0.9125    0.0000 C   0  0
   -2.6042    0.6125    0.0000 C   0  0
   -2.6080    0.0173    0.0000 C   0  0
   -2.0921   -0.2826    0.0000 C   0  0
   -1.5776    0.0158    0.0000 C   0  0
   -1.5793    0.6141    0.0000 C   0  0
   -2.0957    0.9103    0.0000 C   0  0
   -3.1279   -0.2805    0.0000 O   0  0
   -3.7083   -0.1209    0.0000 C   0  0
   -4.0084   -0.6375    0.0000 C   0  0
   -4.6042   -0.6375    0.0000 C   0  0
   -4.9042   -1.1542    0.0000 O   0  0
   -5.4250   -0.8542    0.0000 C   0  0
   -4.6292    1.9875    0.0000 C   0  0
   -4.9277    2.5106    0.0000 C   0  0
   -5.5264    2.5174    0.0000 C   0  0
   -5.8303    1.9982    0.0000 C   0  0
   -5.5296    1.4750    0.0000 C   0  0
   -4.9324    1.4718    0.0000 C   0  0
   -3.8694    3.1273    0.0000 N   0  0
   -4.0451    3.6986    0.0000 C   0  0
   -4.6209    3.8318    0.0000 C   0  0
   -5.0300    3.3953    0.0000 N   0  0
   -4.8537    2.8267    0.0000 C   0  0
   -4.2723    2.6905    0.0000 C   0  0
  1  2  1  0
  1  3  2  0
  1  4  1  0
  2  5  2  0
  2  6  1  0
  3  7  1  0
  3  8  1  0
  4  9  2  0
  5 10  1  0
  6 11  2  0
  8 12  2  0
  5  7  1  0
  9 12  1  0
  7 13  1  0
 13 14  1  0
 14 15  2  0
 15 16  1  0
 16 17  2  0
 17 18  1  0
 18 19  2  0
 19 14  1  0
 15 20  1  0
 20 21  1  0
 21 22  1  0
 22 23  1  0
 23 24  1  0
 24 25  1  0
 10 26  1  0
 26 27  2  0
 27 28  1  0
 29 30  1  0
 30 31  2  0
 31 26  1  0
  6 32  1  0
 32 33  1  0
 32 37  1  0
 33 34  1  0
 34 35  1  0
 35 36  1  0
 36 37  1  0
 29 28  2  0
M  END
>  <ID_NEW>
CPDRE1304

>  <pIC50>
5.8124792791635365

$$$$

  SciTegic12180813502D

 33 37  0  0  0  0            999 V2000
    7.4986   -2.8333    0.0000 C   0  0
    7.4933   -3.6565    0.0000 C   0  0
    8.2024   -4.0709    0.0000 C   0  0
    8.9173   -3.6632    0.0000 C   0  0
    8.9187   -2.8369    0.0000 C   0  0
    8.2089   -2.4262    0.0000 C   0  0
    5.1126   -0.9667    0.0000 N   0  0
    5.1084   -0.1417    0.0000 C   0  0
    4.3958    0.2649    0.0000 C   0  0
    3.6828   -0.1489    0.0000 N   0  0
    3.6870   -0.9739    0.0000 C   0  0
    4.4041   -1.3851    0.0000 C   0  0
    3.3695   -2.4334    0.0000 C   0  0
    3.3683   -3.2607    0.0000 C   0  0
    4.0832   -3.6736    0.0000 C   0  0
    4.0814   -2.0206    0.0000 N   0  0
    4.7967   -2.4297    0.0000 C   0  0
    4.8016   -3.2562    0.0000 C   0  0
    5.5891   -3.5070    0.0000 N   0  0
    6.0710   -2.8355    0.0000 C   0  0
    5.5812   -2.1698    0.0000 C   0  0
    5.8486   -4.2901    0.0000 C   0  0
    5.2970   -4.9017    0.0000 C   0  0
    5.5560   -5.6842    0.0000 C   0  0
    6.3647   -5.8517    0.0000 C   0  0
    6.9140   -5.2304    0.0000 C   0  0
    6.6522   -4.4503    0.0000 C   0  0
    5.8316   -1.3837    0.0000 C   0  0
    6.6375   -1.2075    0.0000 O   0  0
    2.6501   -2.0168    0.0000 O   0  0
    6.7834   -2.4167    0.0000 C   0  0
    8.2042   -1.6000    0.0000 C   0  0
    9.5000   -2.2459    0.0000 F   0  0
  1  2  2  0
  3  4  2  0
  4  5  1  0
 16 13  1  0
 17 18  1  0
 18 19  1  0
 19 20  1  0
 20 21  2  0
 21 17  1  0
 19 22  1  0
 22 23  2  0
 23 24  1  0
 24 25  2  0
 25 26  1  0
 26 27  2  0
 27 22  1  0
 21 28  1  0
 28 29  2  0
 13 14  2  0
 14 15  1  0
 15 18  2  0
 28  7  1  0
 13 30  1  0
 17 16  2  0
 11 12  1  0
  7  8  1  0
  7 12  1  0
  8  9  1  0
  9 10  1  0
 10 11  1  0
  2  3  1  0
 20 31  1  0
 31  1  1  0
  5  6  2  0
  6 32  1  0
  6  1  1  0
  5 33  1  0
M  END
>  <ID_NEW>
CPDRE1305

>  <pIC50>
5.795880017344075

$$$$

  SciTegic12180813512D

 32 36  0  0  0  0            999 V2000
    5.5417   -1.8958    0.0000 N   0  0
    5.5375   -1.0708    0.0000 C   0  0
    4.8249   -0.6642    0.0000 C   0  0
    4.1119   -1.0780    0.0000 N   0  0
    4.1161   -1.9030    0.0000 C   0  0
    4.8332   -2.3142    0.0000 C   0  0
    4.8379   -4.4370    0.0000 N   0  0
    5.5051   -3.9923    0.0000 C   0  0
    4.1167   -4.0739    0.0000 C   0  0
    4.8849   -5.2473    0.0000 C   0  0
    5.4626   -3.1858    0.0000 C   0  0
    6.2991   -4.1562    0.0000 O   0  0
    4.0699   -3.2676    0.0000 C   0  0
    3.4349   -4.5193    0.0000 C   0  0
    4.2104   -5.6895    0.0000 C   0  0
    5.6055   -5.6041    0.0000 C   0  0
    5.9977   -2.5786    0.0000 C   0  0
    6.5467   -4.9240    0.0000 C   0  0
    3.3445   -2.8999    0.0000 C   0  0
    2.7171   -4.1560    0.0000 C   0  0
    4.2606   -6.4955    0.0000 C   0  0
    5.6555   -6.4067    0.0000 C   0  0
    6.7948   -2.7388    0.0000 O   0  0
    6.0077   -5.5205    0.0000 C   0  0
    7.3334   -5.0881    0.0000 C   0  0
    2.6737   -3.3462    0.0000 C   0  0
    4.9819   -6.8594    0.0000 C   0  0
    6.2514   -6.2883    0.0000 C   0  0
    7.5843   -5.8523    0.0000 C   0  0
    7.0416   -6.4599    0.0000 C   0  0
    5.2292    0.0542    0.0000 C   0  0
    6.0250    0.2708    0.0000 O   0  0
 11 17  1  0
 12 18  1  0
 13 19  2  0
 14 20  1  0
 15 21  1  0
 16 22  2  0
 17 23  2  0
 18 24  2  0
 18 25  1  0
 19 26  1  0
 21 27  2  0
 24 28  1  0
 25 29  2  0
 28 30  2  0
 11 13  1  0
 20 26  2  0
 22 27  1  0
 29 30  1  0
 17  1  1  0
  7  8  1  0
  7  9  1  0
  7 10  1  0
  8 11  2  0
  8 12  1  0
  1  2  1  0
  1  6  1  0
  2  3  1  0
  3  4  1  0
  4  5  1  0
  3 31  1  0
  5  6  1  0
 31 32  1  0
  9 13  1  0
  9 14  2  0
 10 15  2  0
 10 16  1  0
M  END
>  <ID_NEW>
CPDRE1306

>  <pIC50>
5.795880017344075

$$$$

  SciTegic12180813072D

 33 37  0  0  0  0            999 V2000
   -5.8297    0.7647    0.0000 C   0  0
   -5.8286   -0.0602    0.0000 C   0  0
   -5.1062   -0.4609    0.0000 C   0  0
   -5.1167    1.1849    0.0000 C   0  0
   -4.4026    0.7800    0.0000 C   0  0
   -4.3889   -0.0450    0.0000 C   0  0
   -3.6082   -0.2955    0.0000 N   0  0
   -3.1250    0.3760    0.0000 C   0  0
   -3.6177    1.0397    0.0000 C   0  0
   -3.3401   -1.0761    0.0000 C   0  0
   -3.8919   -1.6958    0.0000 C   0  0
   -3.6280   -2.4806    0.0000 C   0  0
   -2.8206   -2.6417    0.0000 C   0  0
   -2.2727   -2.0262    0.0000 C   0  0
   -2.5368   -1.2414    0.0000 C   0  0
   -3.3672    1.8289    0.0000 C   0  0
   -2.5653    2.0039    0.0000 O   0  0
   -3.9310    2.4386    0.0000 N   0  0
   -3.6804    3.2235    0.0000 C   0  0
   -4.2400    3.8332    0.0000 C   0  0
   -5.0459    3.6538    0.0000 N   0  0
   -5.2924    2.8689    0.0000 C   0  0
   -4.7328    2.2551    0.0000 C   0  0
   -0.9749    0.7437    0.0000 C   0  0
   -0.4462    1.3808    0.0000 C   0  0
   -1.7836    0.8784    0.0000 C   0  0
   -0.7345    2.1522    0.0000 C   0  0
   -2.0719    1.6540    0.0000 C   0  0
   -2.3122    0.2456    0.0000 O   0  0
   -1.5515    2.2868    0.0000 C   0  0
   -0.5667    0.0333    0.0000 C   0  0
   -0.9833   -0.6792    0.0000 C   0  0
    0.2250   -0.1792    0.0000 C   0  0
 18 23  1  0
 19 20  1  0
 20 21  1  0
 21 22  1  0
 22 23  1  0
  1  2  2  0
  2  3  1  0
  3  6  2  0
  5  4  2  0
  4  1  1  0
 24 31  1  0
 31 32  1  0
  5  6  1  0
 24 25  1  0
 24 26  2  0
 25 27  2  0
 26 28  1  0
 26 29  1  0
 27 30  1  0
 28 30  2  0
  8 29  1  0
  6  7  1  0
  7  8  1  0
  8  9  2  0
  9  5  1  0
  7 10  1  0
 10 11  2  0
 11 12  1  0
 12 13  2  0
 13 14  1  0
 14 15  2  0
 15 10  1  0
  9 16  1  0
 16 17  2  0
 16 18  1  0
 18 19  1  0
 31 33  1  0
M  END
>  <ID_NEW>
CPDRE1307

>  <pIC50>
5.752026733638193

$$$$

  SciTegic12180813452D

 30 34  0  0  0  0            999 V2000
    4.8252   -4.7064    0.0000 C   0  0
    5.2316   -5.4179    0.0000 C   0  0
    6.0492   -5.4207    0.0000 C   0  0
    6.4613   -4.7126    0.0000 C   0  0
    6.0498   -4.0004    0.0000 C   0  0
    5.2336   -4.0011    0.0000 C   0  0
    2.3458   -2.6667    0.0000 N   0  0
    2.5583   -1.8667    0.0000 C   0  0
    1.9750   -1.2859    0.0000 C   0  0
    1.1759   -1.4995    0.0000 N   0  0
    0.9634   -2.2995    0.0000 C   0  0
    1.5500   -2.8859    0.0000 C   0  0
    0.4736   -4.3041    0.0000 C   0  0
    0.4724   -5.1314    0.0000 C   0  0
    1.1873   -5.5443    0.0000 N   0  0
    1.1855   -3.8913    0.0000 C   0  0
    1.9008   -4.3004    0.0000 C   0  0
    1.9057   -5.1269    0.0000 C   0  0
    2.6932   -5.3777    0.0000 N   0  0
    3.1751   -4.7062    0.0000 C   0  0
    2.6853   -4.0405    0.0000 C   0  0
    2.9527   -6.1608    0.0000 C   0  0
    2.4011   -6.7724    0.0000 C   0  0
    2.6601   -7.5549    0.0000 C   0  0
    3.4688   -7.7224    0.0000 C   0  0
    4.0181   -7.1011    0.0000 C   0  0
    3.7563   -6.3210    0.0000 C   0  0
    2.9357   -3.2544    0.0000 C   0  0
    3.7416   -3.0782    0.0000 O   0  0
    4.0000   -4.7042    0.0000 O   0  0
  2  3  1  0
  5  6  2  0
  6  1  1  0
  1  2  2  0
  3  4  2  0
 17 16  2  0
 16 13  1  0
 17 18  1  0
 18 19  1  0
 19 20  1  0
 20 21  2  0
 21 17  1  0
 19 22  1  0
 22 23  2  0
 23 24  1  0
 24 25  2  0
 25 26  1  0
 26 27  2  0
 27 22  1  0
 21 28  1  0
 28 29  2  0
 13 14  2  0
 14 15  1  0
 15 18  2  0
 28  7  1  0
  9 10  1  0
 10 11  1  0
 11 12  1  0
  7  8  1  0
  7 12  1  0
  8  9  1  0
 20 30  1  0
 30  1  1  0
  4  5  1  0
M  END
>  <ID_NEW>
CPDRE1308

>  <pIC50>
5.737548910269569

$$$$

  SciTegic12180813522D

 35 39  0  0  0  0            999 V2000
    0.4750    1.0875    0.0000 N   0  0
    0.8833    0.3750    0.0000 C   0  0
    1.7000    0.3724    0.0000 C   0  0
    2.1145    1.0806    0.0000 N   0  0
    1.7062    1.7931    0.0000 C   0  0
    0.8833    1.7974    0.0000 C   0  0
   -1.3522   -1.5919    0.0000 C   0  0
   -2.0679   -1.9983    0.0000 C   0  0
   -2.0727   -2.8195    0.0000 C   0  0
   -1.3627   -3.2352    0.0000 C   0  0
   -0.6462   -2.8237    0.0000 C   0  0
   -0.6449   -2.0039    0.0000 C   0  0
    0.7015   -1.0838    0.0000 C   0  0
    0.4842   -1.8776    0.0000 C   0  0
    1.0624   -2.4607    0.0000 C   0  0
    1.8581   -2.2512    0.0000 C   0  0
    2.0724   -1.4533    0.0000 C   0  0
    1.4926   -0.8737    0.0000 C   0  0
   -2.0182   -0.2870    0.0000 C   0  0
   -1.8051    0.5110    0.0000 C   0  0
   -2.3889    1.0925    0.0000 C   0  0
   -3.1861    0.8773    0.0000 C   0  0
   -3.3962    0.0753    0.0000 C   0  0
   -2.8108   -0.5028    0.0000 N   0  0
   -1.3458   -0.7708    0.0000 N   0  0
   -0.6765   -0.2883    0.0000 C   0  0
   -0.9333    0.5000    0.0000 C   0  0
    0.1167   -0.5000    0.0000 O   0  0
   -0.3500    1.0875    0.0000 C   0  0
   -0.5667    1.8875    0.0000 O   0  0
   -2.1792    1.8958    0.0000 C   0  0
   -2.5958    2.6125    0.0000 C   0  0
    1.7042   -0.0708    0.0000 C   0  0
   -2.1875    3.3292    0.0000 C   0  0
    1.0542   -3.2833    0.0000 F   0  0
 19 20  2  0
 20 21  1  0
  9 10  2  0
 21 22  2  0
  1  6  1  0
 22 23  1  0
 10 11  1  0
 23 24  2  0
 24 19  1  0
  2  3  1  0
 11 12  2  0
 26 27  2  0
 12  7  1  0
 25 26  1  0
 27 20  1  0
 19 25  1  0
 25  7  1  0
  3  4  1  0
 26 28  1  0
 28 13  1  0
  4  5  1  0
 27 29  1  0
 13 14  2  0
 29 30  2  0
 29  1  1  0
  5  6  1  0
 21 31  1  0
 14 15  1  0
 31 32  1  0
 18 33  1  0
 15 16  2  0
 32 34  1  0
  1  2  1  0
 15 35  1  0
 16 17  1  0
  7  8  2  0
 17 18  2  0
 18 13  1  0
  8  9  1  0
M  END
>  <ID_NEW>
CPDRE1309

>  <pIC50>
5.732828271596985

$$$$

  -MTS-   10172316392D 0   0.00000     0.00000     0

 33 37  0  0  1  0  0  0  0  0999 V2000
    2.1080   -2.2370    0.0000 C   0  0  0  0  0  0  0  0  0  0  0  0
    2.1080   -3.0620    0.0000 C   0  0  0  0  0  0  0  0  0  0  0  0
    2.8200   -3.4710    0.0000 C   0  0  0  0  0  0  0  0  0  0  0  0
    2.8200   -1.8210    0.0000 C   0  0  0  0  0  0  0  0  0  0  0  0
    3.5320   -2.2370    0.0000 N   0  0  0  0  0  0  0  0  0  0  0  0
    3.5370   -3.0590    0.0000 C   0  0  0  0  0  0  0  0  0  0  0  0
    4.3200   -3.3090    0.0000 C   0  0  0  0  0  0  0  0  0  0  0  0
    4.7990   -2.6410    0.0000 C   0  0  0  0  0  0  0  0  0  0  0  0
    4.3120   -1.9790    0.0000 C   0  0  0  0  0  0  0  0  0  0  0  0
    5.6240   -2.6370    0.0000 C   0  0  0  0  0  0  0  0  0  0  0  0
    6.0400   -3.3490    0.0000 C   0  0  0  0  0  0  0  0  0  0  0  0
    4.5790   -4.0920    0.0000 C   0  0  0  0  0  0  0  0  0  0  0  0
    4.0280   -4.7070    0.0000 C   0  0  0  0  0  0  0  0  0  0  0  0
    4.2860   -5.4900    0.0000 C   0  0  0  0  0  0  0  0  0  0  0  0
    5.0950   -5.6570    0.0000 C   0  0  0  0  0  0  0  0  0  0  0  0
    5.6450   -5.0360    0.0000 C   0  0  0  0  0  0  0  0  0  0  0  0
    5.3830   -4.2560    0.0000 C   0  0  0  0  0  0  0  0  0  0  0  0
    5.6280   -4.0610    0.0000 C   0  0  0  0  0  0  0  0  0  0  0  0
    6.0440   -4.7730    0.0000 C   0  0  0  0  0  0  0  0  0  0  0  0
    6.8700   -4.7690    0.0000 C   0  0  0  0  0  0  0  0  0  0  0  0
    7.2780   -4.0470    0.0000 C   0  0  0  0  0  0  0  0  0  0  0  0
    6.8600   -3.3380    0.0000 C   0  0  0  0  0  0  0  0  0  0  0  0
    7.2640   -2.6190    0.0000 C   0  0  0  0  0  0  0  0  0  0  0  0
    8.1030   -4.0400    0.0000 F   0  0  0  0  0  0  0  0  0  0  0  0
    4.5630   -1.1930    0.0000 C   0  0  0  0  0  0  0  0  0  0  0  0
    5.3690   -1.0180    0.0000 N   0  0  0  0  0  0  0  0  0  0  0  0
    4.0070   -0.5830    0.0000 O   0  0  0  0  0  0  0  0  0  0  0  0
    5.9810   -1.5670    0.0000 C   0  0  0  0  0  0  0  0  0  0  0  0
    6.6930   -1.1510    0.0000 C   0  0  2  0  0  0  0  0  0  0  0  0
    6.5170   -0.3450    0.0000 C   0  0  2  0  0  0  0  0  0  0  0  0
    5.6960   -0.2630    0.0000 C   0  0  0  0  0  0  0  0  0  0  0  0
    7.0660    0.2710    0.0000 N   0  0  0  0  0  0  0  0  0  0  0  0
    7.4480   -1.4820    0.0000 O   0  0  0  0  0  0  0  0  0  0  0  0
 22 11  1  0  0  0  0
  5  6  1  0  0  0  0
 22 23  1  0  0  0  0
 10 11  1  0  0  0  0
 21 24  1  0  0  0  0
  9 25  1  0  0  0  0
  7 12  1  0  0  0  0
 25 26  1  0  0  0  0
  1  2  1  0  0  0  0
 25 27  2  0  0  0  0
 26 28  1  0  0  0  0
 12 13  2  0  0  0  0
  1  4  2  0  0  0  0
 13 14  1  0  0  0  0
  2  3  2  0  0  0  0
 28 29  1  0  0  0  0
 29 30  1  0  0  0  0
 30 31  1  0  0  0  0
 31 26  1  0  0  0  0
 14 15  2  0  0  0  0
 30 32  1  6  0  0  0
  3  6  1  0  0  0  0
 29 33  1  6  0  0  0
 15 16  1  0  0  0  0
  6  7  2  0  0  0  0
 16 17  2  0  0  0  0
 17 12  1  0  0  0  0
  7  8  1  0  0  0  0
 11 18  2  0  0  0  0
  8  9  2  0  0  0  0
 18 19  1  0  0  0  0
  9  5  1  0  0  0  0
 19 20  2  0  0  0  0
  5  4  1  0  0  0  0
 20 21  1  0  0  0  0
  8 10  1  0  0  0  0
 21 22  2  0  0  0  0
M  END
>  <ID_NEW>
CPDRE1310

>  <pIC50>
5.7258421507363195

$$$$

  SciTegic12180813472D

 34 38  0  0  0  0            999 V2000
   -5.0787    1.1470    0.0000 C   0  0
   -5.7062    0.6883    0.0000 C   0  0
   -5.6269   -0.0830    0.0000 C   0  0
   -4.9159   -0.4036    0.0000 C   0  0
   -4.3677    0.8264    0.0000 C   0  0
   -4.2842    0.0551    0.0000 C   0  0
   -3.5259   -0.1050    0.0000 N   0  0
   -3.1362    0.5636    0.0000 C   0  0
   -3.6547    1.1425    0.0000 C   0  0
   -3.2097   -0.8180    0.0000 C   0  0
   -3.6684   -1.4467    0.0000 C   0  0
   -3.3522   -2.1597    0.0000 C   0  0
   -2.5815   -2.2398    0.0000 C   0  0
   -2.1187   -1.6152    0.0000 N   0  0
   -2.4390   -0.9023    0.0000 C   0  0
   -3.4904    1.9051    0.0000 C   0  0
   -2.7505    2.1453    0.0000 O   0  0
   -2.2654   -2.9570    0.0000 O   0  0
   -1.4906   -3.0371    0.0000 C   0  0
   -4.0701    2.4272    0.0000 N   0  0
   -3.9058    3.1856    0.0000 C   0  0
   -4.4855    3.7079    0.0000 C   0  0
   -5.2254    3.4675    0.0000 N   0  0
   -5.3855    2.7091    0.0000 C   0  0
   -4.8100    2.1870    0.0000 C   0  0
   -2.2628    1.8521    0.0000 C   0  0
   -1.8261    2.4985    0.0000 C   0  0
   -1.0508    2.4454    0.0000 C   0  0
   -0.7122    1.7420    0.0000 C   0  0
   -1.1446    1.0999    0.0000 C   0  0
   -1.9242    1.1528    0.0000 C   0  0
   -0.8060    0.3964    0.0000 C   0  0
   -2.3609    0.5107    0.0000 O   0  0
    0.0632    1.6890    0.0000 F   0  0
 20 21  1  0
 20 25  1  0
 21 22  1  0
 22 23  1  0
 23 24  1  0
 24 25  1  0
  6  7  1  0
  7  8  1  0
  8  9  2  0
  9  5  1  0
  7 10  1  0
 10 11  2  0
 11 12  1  0
 29 30  1  0
 27 28  1  0
 30 31  2  0
 31 26  1  0
 26 27  2  0
 30 32  1  0
 28 29  2  0
 31 33  1  0
 29 34  1  0
  8 33  1  0
 12 13  2  0
 13 14  1  0
 14 15  2  0
 15 10  1  0
  5  1  1  0
  1  2  2  0
  2  3  1  0
  3  4  2  0
  4  6  1  0
  5  6  2  0
  9 16  1  0
 16 17  2  0
 13 18  1  0
 18 19  1  0
 16 20  1  0
M  END
>  <ID_NEW>
CPDRE1311

>  <pIC50>
5.72124639904717

$$$$

  -MTS-   10172316392D 0   0.00000     0.00000     0

 35 40  0  0  0  0  0  0  0  0999 V2000
   -1.6400    3.3110    0.0000 C   0  0  0  0  0  0  0  0  0  0  0  0
   -2.3090    3.7980    0.0000 N   0  0  0  0  0  0  0  0  0  0  0  0
   -2.9740    3.3110    0.0000 C   0  0  0  0  0  0  0  0  0  0  0  0
   -1.8960    2.5270    0.0000 C   0  0  2  0  0  0  0  0  0  0  0  0
   -2.7170    2.5270    0.0000 C   0  0  1  0  0  0  0  0  0  0  0  0
   -2.3070    1.8170    0.0000 C   0  0  1  0  0  0  0  0  0  0  0  0
   -5.8310   -0.1870    0.0000 C   0  0  0  0  0  0  0  0  0  0  0  0
   -5.8320   -1.0150    0.0000 C   0  0  0  0  0  0  0  0  0  0  0  0
   -5.1170   -1.4280    0.0000 C   0  0  0  0  0  0  0  0  0  0  0  0
   -5.1190    0.2250    0.0000 N   0  0  0  0  0  0  0  0  0  0  0  0
   -4.4030   -0.1840    0.0000 C   0  0  0  0  0  0  0  0  0  0  0  0
   -4.3980   -1.0150    0.0000 C   0  0  0  0  0  0  0  0  0  0  0  0
   -3.6070   -1.2670    0.0000 N   0  0  0  0  0  0  0  0  0  0  0  0
   -3.1220   -0.5920    0.0000 C   0  0  0  0  0  0  0  0  0  0  0  0
   -3.6140    0.0780    0.0000 C   0  0  0  0  0  0  0  0  0  0  0  0
   -3.3470   -2.0500    0.0000 C   0  0  0  0  0  0  0  0  0  0  0  0
   -3.3640    0.8640    0.0000 C   0  0  0  0  0  0  0  0  0  0  0  0
   -3.8970   -2.6660    0.0000 C   0  0  0  0  0  0  0  0  0  0  0  0
   -3.6380   -3.4490    0.0000 C   0  0  0  0  0  0  0  0  0  0  0  0
   -2.8300   -3.6160    0.0000 C   0  0  0  0  0  0  0  0  0  0  0  0
   -2.2800   -2.9950    0.0000 C   0  0  0  0  0  0  0  0  0  0  0  0
   -2.5420   -2.2150    0.0000 C   0  0  0  0  0  0  0  0  0  0  0  0
   -3.9200    1.4740    0.0000 O   0  0  0  0  0  0  0  0  0  0  0  0
   -2.3120    0.9920    0.0000 N   0  0  0  0  0  0  0  0  0  0  0  0
   -2.2970   -0.5870    0.0000 O   0  0  0  0  0  0  0  0  0  0  0  0
   -1.5870   -0.9960    0.0000 C   0  0  0  0  0  0  0  0  0  0  0  0
   -1.5900   -1.8160    0.0000 C   0  0  0  0  0  0  0  0  0  0  0  0
   -0.8810   -2.2250    0.0000 C   0  0  0  0  0  0  0  0  0  0  0  0
   -0.1710   -1.8140    0.0000 C   0  0  0  0  0  0  0  0  0  0  0  0
   -0.1740   -0.9910    0.0000 C   0  0  0  0  0  0  0  0  0  0  0  0
   -0.8840   -0.5860    0.0000 C   0  0  0  0  0  0  0  0  0  0  0  0
   -0.8870    0.2390    0.0000 C   0  0  0  0  0  0  0  0  0  0  0  0
   -2.3040   -2.2270    0.0000 C   0  0  0  0  0  0  0  0  0  0  0  0
   -1.8040    2.9350    0.0000 H   0  0  0  0  0  0  0  0  0  0  0  0
   -2.8100    2.9350    0.0000 H   0  0  0  0  0  0  0  0  0  0  0  0
  4  1  1  0  0  0  0
  1  2  1  0  0  0  0
  2  3  1  0  0  0  0
  3  5  1  0  0  0  0
  5  4  1  0  0  0  0
  6  5  1  0  0  0  0
  4  6  1  0  0  0  0
  9 12  2  0  0  0  0
 16 18  2  0  0  0  0
  7  8  2  0  0  0  0
 18 19  1  0  0  0  0
 11 10  2  0  0  0  0
 19 20  2  0  0  0  0
 12 13  1  0  0  0  0
 20 21  1  0  0  0  0
 13 14  1  0  0  0  0
 21 22  2  0  0  0  0
 22 16  1  0  0  0  0
 14 15  2  0  0  0  0
 15 11  1  0  0  0  0
 10  7  1  0  0  0  0
 13 16  1  0  0  0  0
 11 12  1  0  0  0  0
 17 23  2  0  0  0  0
 15 17  1  0  0  0  0
  8  9  1  0  0  0  0
 17 24  1  0  0  0  0
  6 24  1  6  0  0  0
 14 25  1  0  0  0  0
 25 26  1  0  0  0  0
 26 27  2  0  0  0  0
 27 28  1  0  0  0  0
 28 29  2  0  0  0  0
 29 30  1  0  0  0  0
 30 31  2  0  0  0  0
 31 26  1  0  0  0  0
 31 32  1  0  0  0  0
 27 33  1  0  0  0  0
  5 34  1  6  0  0  0
  4 35  1  6  0  0  0
V    4 M1
V    5 M1
V    6 M1
M  END
>  <ID_NEW>
CPDRE1312

>  <pIC50>
5.643974142806877

$$$$

  SciTegic12180813082D

 28 32  0  0  0  0            999 V2000
    1.9444   -3.5541    0.0000 C   0  0
    1.9432   -4.3815    0.0000 C   0  0
    2.6581   -4.7944    0.0000 C   0  0
    2.6563   -3.1414    0.0000 C   0  0
    3.3676   -3.5542    0.0000 C   0  0
    3.3724   -4.3773    0.0000 C   0  0
    4.1568   -4.6272    0.0000 N   0  0
    4.6368   -3.9584    0.0000 C   0  0
    4.1490   -3.2953    0.0000 C   0  0
    4.4163   -5.4103    0.0000 C   0  0
    4.3993   -2.5092    0.0000 C   0  0
    5.2053   -2.3329    0.0000 N   0  0
    3.8437   -1.8993    0.0000 O   0  0
    5.7595   -2.9460    0.0000 C   0  0
    6.5623   -2.7724    0.0000 C   0  0
    6.8168   -1.9873    0.0000 N   0  0
    6.2620   -1.3754    0.0000 C   0  0
    5.4527   -1.5486    0.0000 C   0  0
    3.8666   -6.0243    0.0000 C   0  0
    4.1255   -6.8069    0.0000 C   0  0
    4.9343   -6.9743    0.0000 C   0  0
    5.4836   -6.3531    0.0000 C   0  0
    5.2217   -5.5730    0.0000 C   0  0
    5.4618   -3.9535    0.0000 N   0  0
    5.9514   -4.6127    0.0000 C   0  0
    6.7346   -4.3531    0.0000 C   0  0
    6.7297   -3.5281    0.0000 C   0  0
    5.9436   -3.2779    0.0000 C   0  0
  1  2  2  0
  2  3  1  0
  3  6  2  0
  5  4  2  0
  4  1  1  0
  5  6  1  0
  6  7  1  0
  7  8  1  0
  8  9  2  0
  9  5  1  0
  7 10  1  0
  9 11  1  0
 11 12  1  0
 11 13  2  0
 12 14  1  0
 12 18  1  0
 14 15  1  0
 15 16  1  0
 16 17  1  0
 17 18  1  0
 10 19  2  0
 19 20  1  0
 20 21  2  0
 21 22  1  0
 22 23  2  0
 23 10  1  0
  8 24  1  0
 24 25  1  0
 25 26  2  0
 26 27  1  0
 27 28  2  0
 28 24  1  0
M  END
>  <ID_NEW>
CPDRE1313

>  <pIC50>
5.627087997029893

$$$$

  SciTegic12180813062D

 28 29  0  0  0  0            999 V2000
    1.9167    2.0458    0.0000 N   0  0
    2.7667    2.1750    0.0000 C   0  0
   -2.5833    2.9042    0.0000 C   0  0
   -3.4417    2.7708    0.0000 C   0  0
   -2.0417    2.2208    0.0000 C   0  0
    1.3833    2.7250    0.0000 C   0  0
   -3.7583    1.9708    0.0000 C   0  0
   -4.6167    1.8500    0.0000 C   0  0
   -2.2667    3.7042    0.0000 C   0  0
    3.1958    1.6417    0.0000 N   0  0
   -1.1958    2.3542    0.0000 C   0  0
   -5.1500    2.5208    0.0000 C   0  0
   -3.9792    3.4542    0.0000 C   0  0
    1.6333    3.3708    0.0000 O   0  0
   -4.8375    3.3333    0.0000 C   0  0
    3.0125    2.8125    0.0000 N   0  0
   -0.8667    3.1542    0.0000 C   0  0
    0.5250    2.6000    0.0000 C   0  0
   -1.4083    3.8375    0.0000 C   0  0
   -2.3667    1.4208    0.0000 O   0  0
   -0.0083    3.2750    0.0000 C   0  0
   -2.1417   -0.0583    0.0000 C   0  0
   -1.9167   -1.5458    0.0000 O   0  0
   -4.8708    1.2042    0.0000 C   0  0
   -1.8167    0.7542    0.0000 C   0  0
   -5.8375    2.4250    0.0000 C   0  0
   -1.6000   -0.7375    0.0000 C   0  0
   -1.4875   -2.0875    0.0000 C   0  0
 19 17  2  0
 20  5  1  0
 21 18  1  0
 22 25  1  0
 23 27  1  0
 24  8  1  0
 25 20  1  0
 26 12  1  0
 27 22  1  0
 28 23  1  0
  3  9  2  0
  8 12  2  0
  2  1  1  0
  3  5  1  0
  4  3  1  0
  5 11  2  0
  6  1  1  0
  7  4  2  0
  8  7  1  0
  9 19  1  0
 10  2  2  0
 11 17  1  0
 12 15  1  0
 13  4  1  0
 14  6  2  0
 15 13  2  0
 16  2  1  0
 17 21  1  0
 18  6  1  0
M  END
>  <ID_NEW>
CPDRE1314

>  <pIC50>
5.621602099051862

$$$$

  SciTegic12180813462D

 34 38  0  0  0  0            999 V2000
   -3.0380   -0.2804    0.0000 C   0  0
   -3.0348   -1.1804    0.0000 C   0  0
   -2.2549   -1.6275    0.0000 C   0  0
   -2.2614    0.1683    0.0000 C   0  0
   -1.4817   -0.2789    0.0000 C   0  0
   -1.4825   -1.1747    0.0000 C   0  0
   -0.6258   -1.4518    0.0000 N   0  0
   -0.0968   -0.7239    0.0000 C   0  0
   -0.6269    0.0002    0.0000 C   0  0
   -0.3466   -2.3065    0.0000 C   0  0
   -0.3540    0.8570    0.0000 C   0  0
    0.5251    1.0429    0.0000 O   0  0
   -0.9437   -2.9734    0.0000 C   0  0
   -0.6646   -3.8282    0.0000 C   0  0
    0.2116   -4.0118    0.0000 C   0  0
    0.8129   -3.3449    0.0000 C   0  0
    0.5338   -2.4901    0.0000 C   0  0
   -0.9559    1.5237    0.0000 N   0  0
   -0.6789    2.3763    0.0000 C   0  0
   -1.2808    3.0430    0.0000 C   0  0
   -2.1599    2.8529    0.0000 N   0  0
   -2.4370    2.0003    0.0000 C   0  0
   -1.8350    1.3337    0.0000 C   0  0
   -3.8179    0.1668    0.0000 O   0  0
   -3.8170    1.0626    0.0000 C   0  0
    1.3594   -0.1882    0.0000 C   0  0
    2.2455   -0.3413    0.0000 C   0  0
    1.0516    0.6535    0.0000 C   0  0
    0.7852   -0.8769    0.0000 O   0  0
    2.8238    0.3474    0.0000 C   0  0
    2.5575   -1.1872    0.0000 C   0  0
    1.6257    1.3421    0.0000 C   0  0
    2.5119    1.1891    0.0000 C   0  0
    3.7099    0.1937    0.0000 F   0  0
  5  4  2  0
  4  1  1  0
  5  6  1  0
  6  7  1  0
 26 27  2  0
 26 28  1  0
 26 29  1  0
 27 30  1  0
 27 31  1  0
 28 32  2  0
 30 33  2  0
 32 33  1  0
  8 29  1  0
  7  8  1  0
  8  9  2  0
  9  5  1  0
  7 10  1  0
  9 11  1  0
 11 12  2  0
 10 13  2  0
 13 14  1  0
 14 15  2  0
 15 16  1  0
 16 17  2  0
 17 10  1  0
 11 18  1  0
 18 19  1  0
 18 23  1  0
 19 20  1  0
 20 21  1  0
 21 22  1  0
 22 23  1  0
 30 34  1  0
  1 24  1  0
 24 25  1  0
  1  2  2  0
  2  3  1  0
  3  6  2  0
M  END
>  <ID_NEW>
CPDRE1315

>  <pIC50>
5.619788758288393

$$$$

  SciTegic12180813562D

 34 38  0  0  0  0            999 V2000
   -3.9376    2.3125    0.0000 N   0  0
   -3.7251    3.1125    0.0000 C   0  0
   -4.3084    3.6933    0.0000 C   0  0
   -5.1075    3.4797    0.0000 N   0  0
   -5.3200    2.6797    0.0000 C   0  0
   -4.7334    2.0933    0.0000 C   0  0
   -3.6014    0.9396    0.0000 C   0  0
   -3.5963   -0.4059    0.0000 N   0  0
   -3.1110    0.2714    0.0000 C   0  0
   -3.1757   -1.1250    0.0000 C   0  0
   -2.3584   -1.1103    0.0000 C   0  0
   -3.5891   -1.8302    0.0000 C   0  0
   -1.9391   -1.8270    0.0000 C   0  0
   -3.1699   -2.5469    0.0000 C   0  0
   -2.3425   -2.5495    0.0000 C   0  0
   -3.3491    1.7250    0.0000 C   0  0
   -2.5427    1.8992    0.0000 O   0  0
   -2.2876    0.2750    0.0000 O   0  0
   -2.9042    3.1125    0.0000 C   0  0
   -3.3209    3.8292    0.0000 C   0  0
   -4.3901   -0.1522    0.0000 C   0  0
   -4.3910    0.6808    0.0000 C   0  0
   -5.1118    1.0946    0.0000 N   0  0
   -5.8320    0.6766    0.0000 C   0  0
   -5.8270   -0.1595    0.0000 C   0  0
   -5.1057   -0.5696    0.0000 C   0  0
   -1.4959    0.0625    0.0000 C   0  0
   -1.2864   -0.7311    0.0000 C   0  0
   -0.4956   -0.9438    0.0000 C   0  0
    0.0852   -0.3641    0.0000 C   0  0
   -0.1302    0.4312    0.0000 C   0  0
   -0.9207    0.6401    0.0000 C   0  0
   -1.8712   -1.3131    0.0000 C   0  0
   -1.1364    1.4364    0.0000 C   0  0
 21  8  1  0
  8  9  1  0
  9  7  2  0
 10 11  1  0
 10 12  2  0
 10  8  1  0
 11 13  2  0
 12 14  1  0
 13 15  1  0
 14 15  2  0
  7 22  1  0
  7 16  1  0
 16 17  2  0
 16  1  1  0
  1  2  1  0
  1  6  1  0
  2  3  1  0
  3  4  1  0
  4  5  1  0
  5  6  1  0
  9 18  1  0
  2 19  1  0
  2 20  1  0
 21 22  2  0
 22 23  1  0
 23 24  2  0
 24 25  1  0
 25 26  2  0
 26 21  1  0
 18 27  1  0
 27 28  2  0
 28 29  1  0
 29 30  2  0
 30 31  1  0
 31 32  2  0
 32 27  1  0
 28 33  1  0
 32 34  1  0
M  END
>  <ID_NEW>
CPDRE1316

>  <pIC50>
5.602059991327962

$$$$

  -MTS-   10172316392D 0   0.00000     0.00000     0

 35 39  0  0  1  0  0  0  0  0999 V2000
   11.8700   -5.6400    0.0000 C   0  0  0  0  0  0  0  0  0  0  0  0
   12.0600   -6.3560    0.0000 C   0  0  0  0  0  0  0  0  0  0  0  0
   12.7730   -6.5470    0.0000 C   0  0  0  0  0  0  0  0  0  0  0  0
   13.2970   -6.0250    0.0000 C   0  0  0  0  0  0  0  0  0  0  0  0
   13.1030   -5.3070    0.0000 C   0  0  0  0  0  0  0  0  0  0  0  0
   12.3900   -5.1190    0.0000 C   0  0  0  0  0  0  0  0  0  0  0  0
    9.5000   -3.7170    0.0000 N   0  0  0  0  0  0  0  0  0  0  0  0
    9.4960   -2.9620    0.0000 C   0  0  0  0  0  0  0  0  0  0  0  0
    8.8440   -2.5910    0.0000 C   0  0  1  0  0  0  0  0  0  0  0  0
    8.1930   -2.9700    0.0000 N   0  0  0  0  0  0  0  0  0  0  0  0
    8.1970   -3.7240    0.0000 C   0  0  0  0  0  0  0  0  0  0  0  0
    8.8530   -4.0990    0.0000 C   0  0  0  0  0  0  0  0  0  0  0  0
    8.0150   -5.4750    0.0000 C   0  0  0  0  0  0  0  0  0  0  0  0
    8.1330   -6.2150    0.0000 C   0  0  0  0  0  0  0  0  0  0  0  0
    8.8290   -6.4840    0.0000 C   0  0  0  0  0  0  0  0  0  0  0  0
    8.5980   -5.0030    0.0000 N   0  0  0  0  0  0  0  0  0  0  0  0
    9.9680   -4.9350    0.0000 C   0  0  0  0  0  0  0  0  0  0  0  0
    9.2980   -5.2720    0.0000 C   0  0  0  0  0  0  0  0  0  0  0  0
    9.4130   -6.0160    0.0000 C   0  0  0  0  0  0  0  0  0  0  0  0
   10.1570   -6.1330    0.0000 N   0  0  0  0  0  0  0  0  0  0  0  0
   10.4980   -5.4640    0.0000 C   0  0  0  0  0  0  0  0  0  0  0  0
   10.4940   -6.8040    0.0000 C   0  0  0  0  0  0  0  0  0  0  0  0
   10.0840   -7.4310    0.0000 C   0  0  0  0  0  0  0  0  0  0  0  0
   11.2420   -6.8430    0.0000 C   0  0  0  0  0  0  0  0  0  0  0  0
   10.4250   -8.0980    0.0000 C   0  0  0  0  0  0  0  0  0  0  0  0
   11.5830   -7.5090    0.0000 C   0  0  0  0  0  0  0  0  0  0  0  0
   11.1730   -8.1410    0.0000 C   0  0  0  0  0  0  0  0  0  0  0  0
   10.0850   -4.1950    0.0000 C   0  0  0  0  0  0  0  0  0  0  0  0
   10.7860   -3.9270    0.0000 O   0  0  0  0  0  0  0  0  0  0  0  0
    9.0330   -1.8620    0.0000 C   0  0  0  0  0  0  0  0  0  0  0  0
    8.5000   -1.3290    0.0000 C   0  0  0  0  0  0  0  0  0  0  0  0
    9.7580   -1.6670    0.0000 C   0  0  0  0  0  0  0  0  0  0  0  0
   11.2210   -5.2670    0.0000 O   0  0  0  0  0  0  0  0  0  0  0  0
   12.1970   -4.4070    0.0000 C   0  0  0  0  0  0  0  0  0  0  0  0
   11.5360   -6.8790    0.0000 C   0  0  0  0  0  0  0  0  0  0  0  0
  3  4  2  0  0  0  0
  4  5  1  0  0  0  0
  2  3  1  0  0  0  0
 30 32  1  0  0  0  0
  9 10  1  0  0  0  0
 10 11  1  0  0  0  0
 11 12  1  0  0  0  0
 23 25  1  0  0  0  0
 24 26  2  0  0  0  0
 25 27  2  0  0  0  0
 26 27  1  0  0  0  0
 16 13  2  0  0  0  0
 18 19  2  0  0  0  0
 14 15  2  0  0  0  0
 15 19  1  0  0  0  0
 13 14  1  0  0  0  0
 18 16  1  0  0  0  0
 17 18  1  0  0  0  0
 17 28  1  0  0  0  0
 28 29  2  0  0  0  0
 19 20  1  0  0  0  0
 20 21  1  0  0  0  0
 21 17  2  0  0  0  0
 22 23  2  0  0  0  0
 22 24  1  0  0  0  0
 22 20  1  0  0  0  0
 28  7  1  0  0  0  0
  7  8  1  0  0  0  0
  9 30  1  1  0  0  0
  7 12  1  0  0  0  0
 30 31  1  0  0  0  0
  8  9  1  0  0  0  0
  5  6  2  0  0  0  0
 21 33  1  0  0  0  0
 33  1  1  0  0  0  0
  6  1  1  0  0  0  0
  6 34  1  0  0  0  0
  1  2  2  0  0  0  0
  2 35  1  0  0  0  0
M  END
>  <ID_NEW>
CPDRE1317

>  <pIC50>
5.567030709125594

$$$$

  SciTegic12180813542D

 37 42  0  0  0  0            999 V2000
    1.3569   -7.9000    0.0000 C   0  0
    1.3557   -8.7273    0.0000 C   0  0
    2.0706   -9.1402    0.0000 C   0  0
    2.0688   -7.4872    0.0000 C   0  0
    3.5755   -7.6377    0.0000 C   0  0
    2.7841   -7.8963    0.0000 C   0  0
    2.7867   -8.7295    0.0000 C   0  0
    3.5805   -8.9832    0.0000 N   0  0
    4.0659   -8.3059    0.0000 C   0  0
    3.8278   -6.8523    0.0000 C   0  0
    4.6342   -6.6781    0.0000 N   0  0
    3.2738   -6.2410    0.0000 O   0  0
    3.8399   -9.7664    0.0000 C   0  0
    3.2893  -10.3770    0.0000 C   0  0
    3.5481  -11.1596    0.0000 C   0  0
    4.3568  -11.3272    0.0000 C   0  0
    4.9062  -10.7060    0.0000 C   0  0
    4.6445   -9.9259    0.0000 C   0  0
    4.8909   -8.3012    0.0000 O   0  0
    5.3075   -9.0134    0.0000 C   0  0
    4.8972   -9.7294    0.0000 C   0  0
    5.3131  -10.4410    0.0000 C   0  0
    6.1390  -10.4368    0.0000 C   0  0
    6.5472   -9.7150    0.0000 C   0  0
    6.1290   -9.0063    0.0000 C   0  0
    5.1845   -7.2895    0.0000 C   0  0
    5.9878   -7.1180    0.0000 C   0  0
    6.2443   -6.3335    0.0000 N   0  0
    5.6910   -5.7202    0.0000 C   0  0
    4.8813   -5.8914    0.0000 C   0  0
    4.3266   -5.2807    0.0000 C   0  0
    4.5781   -4.4950    0.0000 C   0  0
    5.3825   -4.3221    0.0000 C   0  0
    5.6341   -3.5372    0.0000 C   0  0
    5.0791   -2.9255    0.0000 C   0  0
    4.2693   -3.1041    0.0000 C   0  0
    4.0214   -3.8888    0.0000 C   0  0
  4  1  1  0
 13 14  2  0
  6  7  1  0
 14 15  1  0
  5  6  1  0
 15 16  2  0
  7  8  1  0
 16 17  1  0
  8  9  1  0
 17 18  2  0
 11 26  1  0
 18 13  1  0
  9  5  2  0
  9 19  1  0
  5 10  1  0
 11 30  1  0
 26 27  1  0
 27 28  1  0
 28 29  1  0
 29 30  1  0
 19 20  1  0
 10 11  1  0
 20 21  2  0
 10 12  2  0
 21 22  1  0
  1  2  2  0
 22 23  2  0
  2  3  1  0
 30 31  1  0
 23 24  1  0
 31 32  1  0
  3  7  2  0
 32 33  2  0
 24 25  2  0
 33 34  1  0
 25 20  1  0
 34 35  2  0
  6  4  2  0
 35 36  1  0
  8 13  1  0
 36 37  2  0
 37 32  1  0
M  END
>  <ID_NEW>
CPDRE1318

>  <pIC50>
5.5338741295818

$$$$

  SciTegic12180813082D

 31 35  0  0  0  0            999 V2000
   -5.7056   -0.3958    0.0000 C   0  0
   -5.7068   -1.2232    0.0000 C   0  0
   -4.9920   -1.6361    0.0000 C   0  0
   -4.9938    0.0169    0.0000 C   0  0
   -4.2784   -0.3922    0.0000 C   0  0
   -4.2736   -1.2186    0.0000 C   0  0
   -3.4861   -1.4695    0.0000 N   0  0
   -3.0041   -0.7980    0.0000 C   0  0
   -3.4939   -0.1323    0.0000 C   0  0
   -3.2436    0.6538    0.0000 C   0  0
   -2.4376    0.8301    0.0000 O   0  0
   -3.7992    1.2637    0.0000 N   0  0
   -3.5468    2.0467    0.0000 C   0  0
   -4.0985    2.6552    0.0000 C   0  0
   -4.9057    2.4830    0.0000 N   0  0
   -5.1582    1.6966    0.0000 C   0  0
   -4.6035    1.0824    0.0000 C   0  0
   -2.1791   -0.7931    0.0000 O   0  0
   -1.7624   -1.5052    0.0000 C   0  0
   -2.1733   -2.2207    0.0000 C   0  0
   -1.7573   -2.9323    0.0000 C   0  0
   -0.9314   -2.9279    0.0000 C   0  0
   -0.5233   -2.2060    0.0000 C   0  0
   -0.9417   -1.4974    0.0000 C   0  0
   -3.2267   -2.2526    0.0000 C   0  0
   -3.7752   -2.8689    0.0000 C   0  0
   -4.5815   -2.6996    0.0000 C   0  0
   -5.1297   -3.3151    0.0000 C   0  0
   -4.8705   -4.0992    0.0000 C   0  0
   -4.0578   -4.2644    0.0000 C   0  0
   -3.5131   -3.6476    0.0000 C   0  0
 18 19  1  0
 19 20  2  0
 20 21  1  0
 21 22  2  0
 22 23  1  0
 23 24  2  0
 24 19  1  0
  7 25  1  0
 25 26  1  0
 26 27  2  0
 27 28  1  0
 28 29  2  0
 29 30  1  0
 30 31  2  0
 31 26  1  0
  1  2  2  0
  2  3  1  0
  3  6  2  0
  5  4  2  0
  4  1  1  0
  5  6  1  0
  6  7  1  0
  7  8  1  0
  8  9  2  0
  9  5  1  0
  9 10  1  0
 10 11  2  0
 10 12  1  0
 12 13  1  0
 12 17  1  0
 13 14  1  0
 14 15  1  0
 15 16  1  0
 16 17  1  0
  8 18  1  0
M  END
>  <ID_NEW>
CPDRE1319

>  <pIC50>
5.525055664534612

$$$$

  SciTegic12180813512D

 31 35  0  0  0  0            999 V2000
   -0.3672   -1.0616    0.0000 C   0  0
   -0.1562   -1.8560    0.0000 C   0  0
    0.6357   -2.0691    0.0000 C   0  0
    1.2174   -1.4887    0.0000 C   0  0
    1.0018   -0.6923    0.0000 C   0  0
    0.2103   -0.4830    0.0000 C   0  0
   -2.9606   -1.0252    0.0000 C   0  0
   -3.6763   -1.4317    0.0000 C   0  0
   -3.6811   -2.2528    0.0000 C   0  0
   -2.9710   -2.6685    0.0000 C   0  0
   -2.2546   -2.2570    0.0000 C   0  0
   -2.2533   -1.4372    0.0000 C   0  0
   -1.0831   -0.6466    0.0000 C   0  0
   -1.1334    1.6542    0.0000 N   0  0
   -0.7250    0.9417    0.0000 C   0  0
    0.0916    0.9391    0.0000 C   0  0
    0.5062    1.6473    0.0000 N   0  0
    0.0978    2.3598    0.0000 C   0  0
   -0.7250    2.3641    0.0000 C   0  0
   -3.6266    0.2797    0.0000 C   0  0
   -3.4135    1.0777    0.0000 C   0  0
   -3.9973    1.6592    0.0000 N   0  0
   -4.7945    1.4440    0.0000 C   0  0
   -5.0046    0.6420    0.0000 C   0  0
   -4.4192    0.0639    0.0000 C   0  0
   -2.9542   -0.2041    0.0000 N   0  0
   -2.2849    0.2783    0.0000 C   0  0
   -2.5417    1.0666    0.0000 C   0  0
   -1.4917    0.0667    0.0000 C   0  0
   -1.9584    1.6542    0.0000 C   0  0
   -2.3750    2.3708    0.0000 O   0  0
  6  1  1  0
  1  2  2  0
 21 22  1  0
 22 23  2  0
 11 12  2  0
 23 24  1  0
 24 25  2  0
 25 20  1  0
 14 15  1  0
 27 28  2  0
 12  7  1  0
 26 27  1  0
 28 21  1  0
 20 26  1  0
 26  7  1  0
  7  8  2  0
 27 29  1  0
 29 13  1  0
  9 10  2  0
 28 30  1  0
 30 31  2  0
 30 14  1  0
 14 19  1  0
 15 16  1  0
 16 17  1  0
 17 18  1  0
 18 19  1  0
 10 11  1  0
 20 21  2  0
  8  9  1  0
 13  1  1  0
  2  3  1  0
  3  4  2  0
  4  5  1  0
  5  6  2  0
M  END
>  <ID_NEW>
CPDRE1320

>  <pIC50>
5.501689446210399

$$$$

  SciTegic12180813082D

 31 35  0  0  0  0            999 V2000
   -5.7056    0.0876    0.0000 C   0  0
   -5.7068   -0.7398    0.0000 C   0  0
   -4.9920   -1.1527    0.0000 C   0  0
   -4.9938    0.5003    0.0000 C   0  0
   -4.2784    0.0912    0.0000 C   0  0
   -4.2736   -0.7352    0.0000 C   0  0
   -3.4861   -0.9861    0.0000 N   0  0
   -3.0041   -0.3146    0.0000 C   0  0
   -3.4939    0.3511    0.0000 C   0  0
   -3.2266   -1.7692    0.0000 C   0  0
   -3.7781   -2.3808    0.0000 C   0  0
   -3.5192   -3.1633    0.0000 C   0  0
   -2.7104   -3.3307    0.0000 C   0  0
   -2.1611   -2.7095    0.0000 C   0  0
   -2.4230   -1.9294    0.0000 C   0  0
   -3.2436    1.1372    0.0000 C   0  0
   -2.4376    1.3135    0.0000 O   0  0
   -3.7992    1.7471    0.0000 N   0  0
   -3.5468    2.5301    0.0000 C   0  0
   -4.0985    3.1386    0.0000 C   0  0
   -4.9057    2.9664    0.0000 N   0  0
   -5.1582    2.1800    0.0000 C   0  0
   -4.6035    1.5658    0.0000 C   0  0
   -2.1791   -0.3097    0.0000 N   0  0
   -1.7624   -1.0218    0.0000 C   0  0
   -2.1733   -1.7373    0.0000 C   0  0
   -1.7573   -2.4489    0.0000 C   0  0
   -0.9314   -2.4445    0.0000 C   0  0
   -0.5233   -1.7226    0.0000 C   0  0
   -0.9417   -1.0140    0.0000 C   0  0
   -1.7708    0.4072    0.0000 C   0  0
 21 22  1  0
 22 23  1  0
  8 24  1  0
 24 25  1  0
 25 26  2  0
 26 27  1  0
 27 28  2  0
 28 29  1  0
 29 30  2  0
 30 25  1  0
 24 31  1  0
  1  2  2  0
  2  3  1  0
  3  6  2  0
  5  4  2  0
  4  1  1  0
  5  6  1  0
  6  7  1  0
  7  8  1  0
  8  9  2  0
  9  5  1  0
  7 10  1  0
 10 11  2  0
 11 12  1  0
 12 13  2  0
 13 14  1  0
 14 15  2  0
 15 10  1  0
  9 16  1  0
 16 17  2  0
 16 18  1  0
 18 19  1  0
 18 23  1  0
 19 20  1  0
 20 21  1  0
M  END
>  <ID_NEW>
CPDRE1321

>  <pIC50>
5.500312917381596

$$$$

  -MTS-   10172316392D 0   0.00000     0.00000     0

 36 40  0  0  1  0  0  0  0  0999 V2000
   11.9870   -4.2280    0.0000 C   0  0  0  0  0  0  0  0  0  0  0  0
   12.1980   -5.0230    0.0000 C   0  0  0  0  0  0  0  0  0  0  0  0
   12.9900   -5.2360    0.0000 C   0  0  0  0  0  0  0  0  0  0  0  0
   13.5710   -4.6550    0.0000 C   0  0  0  0  0  0  0  0  0  0  0  0
   13.3560   -3.8590    0.0000 C   0  0  0  0  0  0  0  0  0  0  0  0
   12.5640   -3.6500    0.0000 C   0  0  0  0  0  0  0  0  0  0  0  0
    9.7290   -2.1920    0.0000 N   0  0  0  0  0  0  0  0  0  0  0  0
    9.9420   -1.3920    0.0000 C   0  0  0  0  0  0  0  0  0  0  0  0
    9.3580   -0.8110    0.0000 C   0  0  1  0  0  0  0  0  0  0  0  0
    8.5590   -1.0240    0.0000 N   0  0  0  0  0  0  0  0  0  0  0  0
    8.3470   -1.8240    0.0000 C   0  0  0  0  0  0  0  0  0  0  0  0
    8.9330   -2.4110    0.0000 C   0  0  0  0  0  0  0  0  0  0  0  0
    8.5830   -5.0700    0.0000 C   0  0  0  0  0  0  0  0  0  0  0  0
    7.8650   -4.6600    0.0000 C   0  0  0  0  0  0  0  0  0  0  0  0
    7.8640   -3.8290    0.0000 N   0  0  0  0  0  0  0  0  0  0  0  0
    8.5780   -3.4170    0.0000 C   0  0  0  0  0  0  0  0  0  0  0  0
   10.0710   -3.5700    0.0000 C   0  0  0  0  0  0  0  0  0  0  0  0
   10.5610   -4.2330    0.0000 C   0  0  0  0  0  0  0  0  0  0  0  0
   10.0820   -4.9030    0.0000 N   0  0  0  0  0  0  0  0  0  0  0  0
    9.2960   -4.6550    0.0000 C   0  0  0  0  0  0  0  0  0  0  0  0
    9.2890   -3.8310    0.0000 C   0  0  0  0  0  0  0  0  0  0  0  0
   10.3430   -5.6860    0.0000 C   0  0  0  0  0  0  0  0  0  0  0  0
    9.7940   -6.3000    0.0000 C   0  0  0  0  0  0  0  0  0  0  0  0
   10.0540   -7.0820    0.0000 C   0  0  0  0  0  0  0  0  0  0  0  0
   10.8630   -7.2480    0.0000 C   0  0  0  0  0  0  0  0  0  0  0  0
   11.4110   -6.6250    0.0000 C   0  0  0  0  0  0  0  0  0  0  0  0
   11.1480   -5.8460    0.0000 C   0  0  0  0  0  0  0  0  0  0  0  0
   10.3200   -2.7830    0.0000 C   0  0  0  0  0  0  0  0  0  0  0  0
   11.1260   -2.6050    0.0000 O   0  0  0  0  0  0  0  0  0  0  0  0
    7.1510   -5.0730    0.0000 O   0  0  0  0  0  0  0  0  0  0  0  0
    6.4360   -4.6620    0.0000 C   0  0  0  0  0  0  0  0  0  0  0  0
    9.5710   -0.0140    0.0000 C   0  0  0  0  0  0  0  0  0  0  0  0
   10.3670    0.2040    0.0000 O   0  0  0  0  0  0  0  0  0  0  0  0
   11.2710   -3.8120    0.0000 C   0  0  0  0  0  0  0  0  0  0  0  0
   11.6080   -5.6040    0.0000 C   0  0  0  0  0  0  0  0  0  0  0  0
   12.9830   -6.0580    0.0000 F   0  0  0  0  0  0  0  0  0  0  0  0
  4  5  1  0  0  0  0
  2  3  1  0  0  0  0
  5  6  2  0  0  0  0
  6  1  1  0  0  0  0
 14 15  2  0  0  0  0
 15 16  1  0  0  0  0
 16 21  2  0  0  0  0
 20 21  1  0  0  0  0
 18 19  1  0  0  0  0
 17 18  2  0  0  0  0
 19 20  1  0  0  0  0
 21 17  1  0  0  0  0
 19 22  1  0  0  0  0
 22 23  1  0  0  0  0
 23 24  1  0  0  0  0
 24 25  1  0  0  0  0
 25 26  1  0  0  0  0
 26 27  1  0  0  0  0
 27 22  1  0  0  0  0
 17 28  1  0  0  0  0
 28 29  2  0  0  0  0
 14 30  1  0  0  0  0
 30 31  1  0  0  0  0
 28  7  1  0  0  0  0
  8  9  1  0  0  0  0
  9 10  1  0  0  0  0
 10 11  1  0  0  0  0
 11 12  1  0  0  0  0
  7  8  1  0  0  0  0
  7 12  1  0  0  0  0
  9 32  1  1  0  0  0
 20 13  2  0  0  0  0
 32 33  1  0  0  0  0
 13 14  1  0  0  0  0
  1  2  2  0  0  0  0
 18 34  1  0  0  0  0
 34  1  1  0  0  0  0
  3  4  2  0  0  0  0
  2 35  1  0  0  0  0
  3 36  1  0  0  0  0
M  END
>  <ID_NEW>
CPDRE1322

>  <pIC50>
5.486782399932061

$$$$

  SciTegic12180813392D

 31 33  0  0  0  0            999 V2000
    5.7819   -0.5708    0.0000 C   0  0
    5.7807   -1.3982    0.0000 C   0  0
    6.4956   -1.8110    0.0000 C   0  0
    7.2120   -1.3977    0.0000 C   0  0
    7.2091   -0.5672    0.0000 C   0  0
    6.4938   -0.1580    0.0000 C   0  0
    6.4954   -2.6360    0.0000 O   0  0
    5.7808   -3.0484    0.0000 C   0  0
    5.7806   -3.8734    0.0000 C   0  0
    5.0660   -4.2857    0.0000 C   0  0
    5.0658   -5.1107    0.0000 O   0  0
    4.3512   -5.5230    0.0000 C   0  0
    7.9221   -0.1520    0.0000 C   0  0
    8.6381   -0.5618    0.0000 C   0  0
    9.3510   -0.1466    0.0000 C   0  0
   10.0670   -0.5564    0.0000 N   0  0
    9.3479    0.6784    0.0000 O   0  0
   10.0701   -1.3814    0.0000 C   0  0
   10.7861   -1.7912    0.0000 N   0  0
    5.0660   -1.8102    0.0000 C   0  0
    4.3535   -1.3958    0.0000 C   0  0
    3.6392   -1.8070    0.0000 C   0  0
    3.6381   -2.6329    0.0000 C   0  0
    4.3573   -3.0458    0.0000 C   0  0
    5.0686   -2.6322    0.0000 C   0  0
    2.9239   -3.0458    0.0000 O   0  0
    2.2092   -2.6338    0.0000 C   0  0
    1.4949   -3.0467    0.0000 C   0  0
    0.6735   -3.0480    0.0000 C   0  0
    1.0864   -3.7622    0.0000 C   0  0
    9.3572   -1.7965    0.0000 N   0  0
  5 13  1  0
 13 14  1  0
  6  1  1  0
 14 15  1  0
 15 16  1  0
  1  2  2  0
 15 17  2  0
 16 18  1  0
 18 19  1  0
  2 20  1  0
  3  4  2  0
 20 21  2  0
  3  7  1  0
 21 22  1  0
  7  8  1  0
 22 23  2  0
  8  9  1  0
 23 24  1  0
  9 10  1  0
 24 25  2  0
 25 20  1  0
  4  5  1  0
 23 26  1  0
 10 11  1  0
 26 27  1  0
 11 12  1  0
 27 28  1  0
 29 28  1  0
 30 29  1  0
 28 30  1  0
  6  5  2  0
  2  3  1  0
 18 31  2  0
M  END
>  <ID_NEW>
CPDRE1323

>  <pIC50>
5.485452247339714

$$$$

  SciTegic12180813472D

 30 34  0  0  0  0            999 V2000
    0.7948   -3.2715    0.0000 C   0  0
    0.2078   -3.8528    0.0000 C   0  0
    0.4181   -4.6497    0.0000 C   0  0
    1.2150   -4.8665    0.0000 C   0  0
    1.8015   -4.2802    0.0000 C   0  0
    1.5881   -3.4855    0.0000 C   0  0
    0.0458   -0.3083    0.0000 N   0  0
    0.7624    0.1126    0.0000 C   0  0
    0.7578    0.9375    0.0000 C   0  0
    0.0383    1.3479    0.0000 N   0  0
   -0.6784    0.9312    0.0000 C   0  0
   -0.6755    0.1000    0.0000 C   0  0
   -1.0857   -3.6586    0.0000 C   0  0
   -1.8054   -4.0691    0.0000 C   0  0
   -1.8103   -4.8945    0.0000 C   0  0
   -1.0961   -5.3101    0.0000 C   0  0
   -0.3755   -4.8987    0.0000 C   0  0
   -0.3741   -4.0747    0.0000 C   0  0
   -1.7558   -2.3452    0.0000 C   0  0
   -1.5385   -1.5432    0.0000 C   0  0
   -2.1265   -0.9616    0.0000 C   0  0
   -2.9279   -1.1768    0.0000 N   0  0
   -3.1379   -1.9830    0.0000 C   0  0
   -2.5484   -2.5653    0.0000 C   0  0
   -1.0793   -2.8333    0.0000 N   0  0
   -0.4058   -2.3466    0.0000 C   0  0
   -0.6626   -1.5542    0.0000 C   0  0
    0.0541   -1.1375    0.0000 C   0  0
    0.7707   -1.5500    0.0000 O   0  0
    0.3875   -2.5583    0.0000 C   0  0
 23 24  2  0
 24 19  1  0
 18 13  1  0
 13 14  2  0
 26 27  2  0
 15 16  2  0
 25 26  1  0
 27 20  1  0
 19 25  1  0
 25 13  1  0
 19 20  2  0
 27 28  1  0
 20 21  1  0
 28 29  2  0
 28  7  1  0
  9 10  1  0
 10 11  1  0
 11 12  1  0
  7  8  1  0
  7 12  1  0
  8  9  1  0
 26 30  1  0
 30  1  1  0
  4  5  1  0
  2  3  1  0
  5  6  2  0
  6  1  1  0
  1  2  2  0
  3  4  2  0
 16 17  1  0
 21 22  2  0
 14 15  1  0
 22 23  1  0
 17 18  2  0
M  END
>  <ID_NEW>
CPDRE1324

>  <pIC50>
5.468521082957744

$$$$

  SciTegic12180813082D

 31 35  0  0  0  0            999 V2000
   -2.5221   -0.7688    0.0000 N   0  0
   -1.8152   -0.3481    0.0000 C   0  0
   -3.2393   -0.3550    0.0000 C   0  0
   -2.5186   -1.5929    0.0000 C   0  0
   -1.8186    0.4761    0.0000 C   0  0
   -1.0186   -0.5584    0.0000 O   0  0
   -3.2428    0.4692    0.0000 C   0  0
   -3.9566   -0.7757    0.0000 C   0  0
   -3.2324   -2.0067    0.0000 C   0  0
   -1.8014   -1.9963    0.0000 C   0  0
   -1.2393    1.0623    0.0000 C   0  0
   -0.8083   -1.3550    0.0000 C   0  0
   -3.9600    0.8795    0.0000 C   0  0
   -4.6704   -0.3619    0.0000 C   0  0
   -3.2255   -2.8308    0.0000 C   0  0
   -1.7945   -2.8170    0.0000 C   0  0
   -0.4393    0.8554    0.0000 O   0  0
   -1.3911   -1.9343    0.0000 C   0  0
   -0.0152   -1.5653    0.0000 C   0  0
   -4.6704    0.4657    0.0000 C   0  0
   -2.5083   -3.2412    0.0000 C   0  0
   -1.1807   -2.7308    0.0000 C   0  0
    0.1986   -2.3584    0.0000 C   0  0
   -0.3842   -2.9446    0.0000 C   0  0
   -1.4587    1.8576    0.0000 N   0  0
   -2.2668    2.0026    0.0000 C   0  0
   -2.6602    2.7300    0.0000 C   0  0
   -0.8368    2.3997    0.0000 C   0  0
   -2.3408    3.4893    0.0000 N   0  0
   -0.8757    3.2252    0.0000 C   0  0
   -1.5464    3.7074    0.0000 C   0  0
 18 22  1  0
 19 23  2  0
 22 24  2  0
  5  7  1  0
 14 20  2  0
 16 21  1  0
 23 24  1  0
 11 25  1  0
 25 26  1  0
 26 27  1  0
 25 28  1  0
 27 29  1  0
 28 30  1  0
 29 31  1  0
 30 31  1  0
  1  2  1  0
  1  3  1  0
  1  4  1  0
  2  5  2  0
  2  6  1  0
  3  7  1  0
  3  8  2  0
  4  9  2  0
  4 10  1  0
  5 11  1  0
  6 12  1  0
  7 13  2  0
  8 14  1  0
  9 15  1  0
 10 16  2  0
 11 17  2  0
 12 18  2  0
 12 19  1  0
 13 20  1  0
 15 21  2  0
M  END
>  <ID_NEW>
CPDRE1325

>  <pIC50>
5.467245621007502

$$$$

  SciTegic12180811042D

 29 33  0  0  0  0            999 V2000
    0.5069   -0.1655    0.0000 C   0  0
   -0.0310   -0.9069    0.0000 N   0  0
   -0.0310    0.5655    0.0000 C   0  0
    1.4172   -0.1655    0.0000 N   0  0
   -0.8966   -0.6276    0.0000 C   0  0
    0.2517   -1.7759    0.0000 C   0  0
   -0.8966    0.2793    0.0000 C   0  0
    0.2517    1.4379    0.0000 C   0  0
    1.8759    0.6172    0.0000 C   0  0
    1.8759   -0.9586    0.0000 C   0  0
   -1.6897   -1.0862    0.0000 C   0  0
   -0.3552   -2.4552    0.0000 C   0  0
    1.1448   -1.9690    0.0000 C   0  0
   -1.6897    0.7379    0.0000 C   0  0
   -0.3552    2.1172    0.0000 N   0  0
    1.1448    1.6276    0.0000 O   0  0
    2.7897    0.6172    0.0000 C   0  0
    2.7897   -0.9586    0.0000 C   0  0
   -2.4828   -0.6276    0.0000 C   0  0
   -0.0724   -3.3241    0.0000 C   0  0
    1.4276   -2.8379    0.0000 C   0  0
   -2.4828    0.2793    0.0000 C   0  0
   -1.2517    1.9241    0.0000 C   0  0
   -0.0724    2.9828    0.0000 C   0  0
    3.2517   -0.1655    0.0000 C   0  0
    0.8138   -3.5207    0.0000 C   0  0
   -1.8655    2.6000    0.0000 C   0  0
   -0.6862    3.6655    0.0000 C   0  0
   -1.5828    3.4690    0.0000 N   0  0
  1  2  1  0
  1  3  2  0
  1  4  1  0
  2  5  1  0
  2  6  1  0
  3  7  1  0
  3  8  1  0
  4  9  1  0
  4 10  1  0
  5 11  1  0
  6 12  1  0
  6 13  2  0
  7 14  1  0
  8 15  1  0
  8 16  2  0
  9 17  1  0
 10 18  1  0
 11 19  2  0
 12 20  2  0
 13 21  1  0
 14 22  2  0
 15 23  1  0
 15 24  1  0
 17 25  1  0
 20 26  1  0
 23 27  1  0
 24 28  1  0
 27 29  1  0
  5  7  2  0
 18 25  1  0
 19 22  1  0
 21 26  2  0
 28 29  1  0
M  END
>  <ID_NEW>
CPDRE1326

>  <pIC50>
5.462495725152111

$$$$

  SciTegic12180813062D

 29 30  0  0  0  0            999 V2000
    1.6833    2.0542    0.0000 N   0  0
    2.5417    2.1792    0.0000 C   0  0
   -2.8000    2.9042    0.0000 C   0  0
   -3.6542    2.7708    0.0000 C   0  0
   -2.2667    2.2375    0.0000 C   0  0
    1.1625    2.7250    0.0000 C   0  0
   -3.9750    1.9792    0.0000 C   0  0
   -2.4792    3.7042    0.0000 C   0  0
    2.9708    1.6417    0.0000 N   0  0
   -4.8250    1.8542    0.0000 C   0  0
   -1.4125    2.3500    0.0000 C   0  0
    1.4083    3.3750    0.0000 O   0  0
    2.7917    2.8167    0.0000 N   0  0
   -1.0875    3.1583    0.0000 C   0  0
    0.3083    2.6042    0.0000 C   0  0
   -5.1500    1.0458    0.0000 C   0  0
   -1.6250    3.8375    0.0000 C   0  0
   -2.5833    1.4208    0.0000 O   0  0
   -0.2375    3.2750    0.0000 C   0  0
   -4.1875    3.4542    0.0000 C   0  0
   -2.3667   -0.0500    0.0000 C   0  0
   -5.3708    2.5333    0.0000 C   0  0
   -5.0417    3.3333    0.0000 C   0  0
   -2.1417   -1.5292    0.0000 O   0  0
   -2.0417    0.7500    0.0000 C   0  0
   -1.8167   -0.7292    0.0000 C   0  0
   -4.7208    0.5083    0.0000 C   0  0
   -5.8375    0.9583    0.0000 C   0  0
   -1.7042   -2.0708    0.0000 C   0  0
 19 15  1  0
 20  4  2  0
 21 25  1  0
 22 23  2  0
 23 20  1  0
 24 26  1  0
 25 18  1  0
 26 21  1  0
 27 16  1  0
 28 16  1  0
 29 24  1  0
  3  8  2  0
 10 22  1  0
  2  1  1  0
  3  5  1  0
  4  3  1  0
  5 11  2  0
  6  1  1  0
  7  4  1  0
  8 17  1  0
  9  2  2  0
 10  7  2  0
 11 14  1  0
 12  6  2  0
 13  2  1  0
 14 19  1  0
 15  6  1  0
 16 10  1  0
 17 14  2  0
 18  5  1  0
M  END
>  <ID_NEW>
CPDRE1327

>  <pIC50>
5.442492798094341

$$$$

  SciTegic12180813062D

 29 31  0  0  0  0            999 V2000
   -4.4667    3.2708    0.0000 C   0  0
   -3.0833    2.7375    0.0000 C   0  0
   -3.6167    3.4167    0.0000 C   0  0
   -4.7625    2.4875    0.0000 C   0  0
   -5.8167    3.3625    0.0000 O   0  0
   -5.1125    3.8042    0.0000 N   0  0
   -5.6083    2.5375    0.0000 N   0  0
    2.1875    2.0208    0.0000 N   0  0
    3.0333    2.1417    0.0000 C   0  0
   -2.2458    2.8667    0.0000 C   0  0
   -3.4000    1.9500    0.0000 C   0  0
   -4.2375    1.8167    0.0000 C   0  0
   -1.7125    2.2000    0.0000 C   0  0
    1.6542    2.6875    0.0000 C   0  0
   -1.9292    3.6542    0.0000 C   0  0
    3.4542    1.6083    0.0000 N   0  0
   -0.8792    2.3167    0.0000 C   0  0
    1.9125    3.3167    0.0000 O   0  0
    3.2833    2.7750    0.0000 N   0  0
   -0.5583    3.1208    0.0000 C   0  0
    0.8125    2.5708    0.0000 C   0  0
   -1.0833    3.7708    0.0000 C   0  0
   -2.0250    1.4042    0.0000 O   0  0
    0.2917    3.2375    0.0000 C   0  0
   -1.8083   -0.0625    0.0000 C   0  0
   -1.5875   -1.5208    0.0000 O   0  0
   -1.5000    0.7333    0.0000 C   0  0
   -1.2750   -0.7208    0.0000 C   0  0
   -1.1667   -2.0542    0.0000 C   0  0
 18 14  2  0
 19  9  1  0
 20 22  2  0
 21 24  1  0
 22 15  1  0
 23 13  1  0
 24 20  1  0
 25 27  1  0
 26 28  1  0
 27 23  1  0
 28 25  1  0
 29 26  1  0
  5  7  1  0
 11  2  1  0
 20 17  1  0
  2  3  2  0
  3  1  1  0
  4  1  1  0
  5  6  1  0
  6  1  2  0
  7  4  2  0
  8 14  1  0
  9  8  1  0
 10  2  1  0
 11 12  2  0
 12  4  1  0
 13 10  1  0
 14 21  1  0
 15 10  2  0
 16  9  2  0
 17 13  2  0
M  END
>  <ID_NEW>
CPDRE1328

>  <pIC50>
5.438898616350944

$$$$

  SciTegic12180813452D

 31 35  0  0  0  0            999 V2000
    7.2294   -4.0314    0.0000 C   0  0
    7.6358   -4.7429    0.0000 C   0  0
    8.4534   -4.7457    0.0000 C   0  0
    8.8655   -4.0376    0.0000 C   0  0
    8.4540   -3.3254    0.0000 C   0  0
    7.6378   -3.3261    0.0000 C   0  0
    4.7500   -1.9917    0.0000 N   0  0
    4.9625   -1.1917    0.0000 C   0  0
    4.3792   -0.6109    0.0000 C   0  0
    3.5801   -0.8245    0.0000 N   0  0
    3.3676   -1.6245    0.0000 C   0  0
    3.9542   -2.2109    0.0000 C   0  0
    5.0974   -4.7027    0.0000 N   0  0
    5.5793   -4.0312    0.0000 C   0  0
    5.0895   -3.3655    0.0000 C   0  0
    5.3569   -5.4858    0.0000 C   0  0
    4.8053   -6.0974    0.0000 C   0  0
    5.0643   -6.8799    0.0000 C   0  0
    5.8730   -7.0474    0.0000 C   0  0
    6.4223   -6.4261    0.0000 C   0  0
    6.1605   -5.6460    0.0000 C   0  0
    5.3399   -2.5794    0.0000 C   0  0
    6.1458   -2.4032    0.0000 O   0  0
    6.4042   -4.0292    0.0000 O   0  0
    7.2208   -2.6083    0.0000 F   0  0
    4.3099   -4.4519    0.0000 C   0  0
    4.3084   -3.6276    0.0000 C   0  0
    3.5950   -3.2186    0.0000 C   0  0
    2.8825   -3.6327    0.0000 C   0  0
    2.8880   -4.4601    0.0000 N   0  0
    3.6020   -4.8654    0.0000 C   0  0
 11 12  1  0
  7  8  1  0
 26 27  2  0
  7 12  1  0
 27 28  1  0
 28 29  2  0
  8  9  1  0
 29 30  1  0
 30 31  2  0
 31 26  1  0
 14 24  1  0
 24  1  1  0
  6 25  1  0
  4  5  1  0
  2  3  1  0
  5  6  2  0
  6  1  1  0
  1  2  2  0
  3  4  2  0
 26 13  1  0
 13 14  1  0
 14 15  2  0
 15 27  1  0
 13 16  1  0
 16 17  2  0
 17 18  1  0
 18 19  2  0
 19 20  1  0
 20 21  2  0
 21 16  1  0
 15 22  1  0
 22 23  2  0
 22  7  1  0
  9 10  1  0
 10 11  1  0
M  END
>  <ID_NEW>
CPDRE1329

>  <pIC50>
5.434152181326482

$$$$

  SciTegic12180813452D

 30 34  0  0  0  0            999 V2000
    3.1625   -1.8542    0.0000 N   0  0
    3.3750   -2.6500    0.0000 C   0  0
    4.1661   -2.8627    0.0000 C   0  0
    4.7502   -2.2828    0.0000 N   0  0
    4.5377   -1.4870    0.0000 C   0  0
    3.7411   -1.2710    0.0000 C   0  0
    2.9615   -4.2257    0.0000 C   0  0
    2.3745   -4.8069    0.0000 C   0  0
    2.5848   -5.6039    0.0000 C   0  0
    3.3817   -5.8207    0.0000 C   0  0
    3.9682   -5.2344    0.0000 C   0  0
    3.7548   -4.4397    0.0000 C   0  0
    1.3644   -4.3211    0.0000 C   0  0
    0.6488   -4.7275    0.0000 C   0  0
    0.6439   -5.5487    0.0000 C   0  0
    1.3540   -5.9643    0.0000 C   0  0
    2.0704   -5.5529    0.0000 C   0  0
    2.0718   -4.7331    0.0000 C   0  0
    0.6984   -3.0161    0.0000 C   0  0
    0.9116   -2.2182    0.0000 C   0  0
    0.3277   -1.6366    0.0000 C   0  0
   -0.4695   -1.8518    0.0000 C   0  0
   -0.6795   -2.6539    0.0000 N   0  0
   -0.0942   -3.2320    0.0000 C   0  0
    1.3708   -3.5000    0.0000 N   0  0
    2.0401   -3.0175    0.0000 C   0  0
    1.7833   -2.2292    0.0000 C   0  0
    2.7500   -3.4292    0.0000 O   0  0
    2.3667   -1.6417    0.0000 C   0  0
    2.1500   -0.8417    0.0000 O   0  0
 20 21  1  0
  2  3  1  0
 21 22  2  0
 10 11  1  0
 22 23  1  0
  3  4  1  0
 23 24  2  0
 24 19  1  0
 11 12  2  0
 12  7  1  0
 26 27  2  0
  4  5  1  0
 25 26  1  0
 27 20  1  0
 19 25  1  0
 25 13  1  0
  5  6  1  0
 26 28  1  0
 28  7  1  0
 13 14  2  0
 27 29  1  0
 29 30  2  0
 29  1  1  0
 14 15  1  0
 15 16  2  0
  7  8  2  0
 16 17  1  0
  1  2  1  0
 17 18  2  0
 18 13  1  0
  8  9  1  0
  1  6  1  0
 19 20  2  0
  9 10  2  0
M  END
>  <ID_NEW>
CPDRE1330

>  <pIC50>
5.424812155072339

$$$$

  -MTS-   10172316392D 0   0.00000     0.00000     0

 34 38  0  0  0  0  0  0  0  0999 V2000
    3.2560   -5.4880    0.0000 C   0  0  0  0  0  0  0  0  0  0  0  0
    2.5400   -5.8940    0.0000 C   0  0  0  0  0  0  0  0  0  0  0  0
    2.5360   -6.7150    0.0000 C   0  0  0  0  0  0  0  0  0  0  0  0
    3.2460   -7.1310    0.0000 C   0  0  0  0  0  0  0  0  0  0  0  0
    3.9620   -6.7190    0.0000 C   0  0  0  0  0  0  0  0  0  0  0  0
    3.9630   -5.9000    0.0000 C   0  0  0  0  0  0  0  0  0  0  0  0
    5.1340   -5.1090    0.0000 C   0  0  0  0  0  0  0  0  0  0  0  0
    4.7170   -5.8190    0.0000 C   0  0  0  0  0  0  0  0  0  0  0  0
    5.1240   -6.5330    0.0000 C   0  0  0  0  0  0  0  0  0  0  0  0
    5.9470   -6.5380    0.0000 C   0  0  0  0  0  0  0  0  0  0  0  0
    6.3620   -5.8230    0.0000 C   0  0  0  0  0  0  0  0  0  0  0  0
    5.9530   -5.1120    0.0000 C   0  0  0  0  0  0  0  0  0  0  0  0
    5.0830   -2.8080    0.0000 N   0  0  0  0  0  0  0  0  0  0  0  0
    5.4920   -3.5210    0.0000 C   0  0  0  0  0  0  0  0  0  0  0  0
    6.3080   -3.5230    0.0000 C   0  0  1  0  0  0  0  0  0  0  0  0
    6.7230   -2.8150    0.0000 N   0  0  0  0  0  0  0  0  0  0  0  0
    6.3140   -2.1030    0.0000 C   0  0  0  0  0  0  0  0  0  0  0  0
    5.4920   -2.0980    0.0000 C   0  0  1  0  0  0  0  0  0  0  0  0
    2.5900   -4.1830    0.0000 C   0  0  0  0  0  0  0  0  0  0  0  0
    2.8030   -3.3850    0.0000 C   0  0  0  0  0  0  0  0  0  0  0  0
    2.2190   -2.8030    0.0000 N   0  0  0  0  0  0  0  0  0  0  0  0
    1.4220   -3.0180    0.0000 C   0  0  0  0  0  0  0  0  0  0  0  0
    1.2120   -3.8200    0.0000 C   0  0  0  0  0  0  0  0  0  0  0  0
    1.7970   -4.3990    0.0000 C   0  0  0  0  0  0  0  0  0  0  0  0
    3.2620   -4.6670    0.0000 N   0  0  0  0  0  0  0  0  0  0  0  0
    3.9320   -4.1840    0.0000 C   0  0  0  0  0  0  0  0  0  0  0  0
    3.6750   -3.3960    0.0000 C   0  0  0  0  0  0  0  0  0  0  0  0
    4.7250   -4.3960    0.0000 O   0  0  0  0  0  0  0  0  0  0  0  0
    4.2580   -2.8080    0.0000 C   0  0  0  0  0  0  0  0  0  0  0  0
    4.0420   -2.0080    0.0000 O   0  0  0  0  0  0  0  0  0  0  0  0
    6.7170   -4.2330    0.0000 C   0  0  0  0  0  0  0  0  0  0  0  0
    5.0750   -1.3790    0.0000 C   0  0  0  0  0  0  0  0  0  0  0  0
    4.0000   -5.4040    0.0000 C   0  0  0  0  0  0  0  0  0  0  0  0
    6.1620   -4.3080    0.0000 C   0  0  0  0  0  0  0  0  0  0  0  0
 15 16  1  0  0  0  0
 16 17  1  0  0  0  0
 17 18  1  0  0  0  0
  4  5  1  0  0  0  0
  9 10  2  0  0  0  0
 19 20  2  0  0  0  0
  2  3  1  0  0  0  0
 20 21  1  0  0  0  0
 10 11  1  0  0  0  0
 21 22  2  0  0  0  0
  5  6  2  0  0  0  0
 22 23  1  0  0  0  0
 11 12  2  0  0  0  0
 23 24  2  0  0  0  0
 24 19  1  0  0  0  0
 12  7  1  0  0  0  0
 13 14  1  0  0  0  0
 26 27  2  0  0  0  0
  6  1  1  0  0  0  0
 25 26  1  0  0  0  0
 27 20  1  0  0  0  0
 19 25  1  0  0  0  0
 25  1  1  0  0  0  0
  1  2  2  0  0  0  0
 26 28  1  0  0  0  0
 28  7  1  0  0  0  0
  3  4  2  0  0  0  0
 27 29  1  0  0  0  0
  7  8  2  0  0  0  0
 29 30  2  0  0  0  0
 29 13  1  0  0  0  0
 15 31  1  1  0  0  0
  8  9  1  0  0  0  0
 18 32  1  6  0  0  0
 13 18  1  0  0  0  0
  8 33  1  0  0  0  0
 14 15  1  0  0  0  0
 12 34  1  0  0  0  0
V   15 M1
V   18 M1
M  END
>  <ID_NEW>
CPDRE1331

>  <pIC50>
5.422508200162774

$$$$

  SciTegic12180813062D

 28 29  0  0  0  0            999 V2000
   -4.0292    2.7042    0.0000 C   0  0
    1.3333    1.9792    0.0000 N   0  0
    2.1875    2.1125    0.0000 C   0  0
   -3.1708    2.8292    0.0000 C   0  0
   -2.6375    2.1542    0.0000 C   0  0
    0.7833    2.6583    0.0000 C   0  0
   -2.8625    3.6250    0.0000 C   0  0
    2.6083    1.5625    0.0000 N   0  0
   -4.5500    3.3750    0.0000 C   0  0
   -4.3417    1.9042    0.0000 C   0  0
   -5.2000    1.7833    0.0000 C   0  0
   -5.4083    3.2542    0.0000 C   0  0
   -1.7792    2.2875    0.0000 C   0  0
   -5.7375    2.4542    0.0000 C   0  0
    1.0458    3.3000    0.0000 O   0  0
    2.4417    2.7500    0.0000 N   0  0
   -1.4542    3.0875    0.0000 C   0  0
   -0.0625    2.5292    0.0000 C   0  0
   -2.0000    3.7583    0.0000 C   0  0
   -2.9500    1.3542    0.0000 O   0  0
   -5.8375    3.8042    0.0000 F   0  0
   -5.4542    1.1375    0.0000 F   0  0
   -0.6083    3.2083    0.0000 C   0  0
   -2.7333   -0.1333    0.0000 C   0  0
   -2.5042   -1.6208    0.0000 O   0  0
   -2.4167    0.6750    0.0000 C   0  0
   -2.1875   -0.8083    0.0000 C   0  0
   -2.0750   -2.1542    0.0000 C   0  0
 19  7  1  0
 20  5  1  0
 21 12  1  0
 22 11  1  0
 23 17  1  0
 24 26  1  0
 25 27  1  0
 26 20  1  0
 27 24  1  0
 28 25  1  0
 11 14  2  0
 17 13  1  0
  2  6  1  0
  3  2  1  0
  4  1  1  0
  5  4  1  0
  6 18  1  0
  7  4  2  0
  8  3  2  0
  9  1  1  0
 10  1  2  0
 11 10  1  0
 12  9  2  0
 13  5  2  0
 14 12  1  0
 15  6  2  0
 16  3  1  0
 17 19  2  0
 18 23  1  0
M  END
>  <ID_NEW>
CPDRE1332

>  <pIC50>
5.41907502432438

$$$$

  SciTegic12180813582D

 34 38  0  0  0  0            999 V2000
    0.5069   -1.8542    0.0000 C   0  0
    0.5057   -2.6066    0.0000 C   0  0
    1.1539   -2.9819    0.0000 C   0  0
    1.1521   -1.4789    0.0000 N   0  0
    1.8049   -1.8506    0.0000 C   0  0
    1.8098   -2.6066    0.0000 C   0  0
    2.5267   -2.8338    0.0000 N   0  0
    2.9655   -2.2211    0.0000 C   0  0
    2.5188   -1.6142    0.0000 C   0  0
    2.7612   -3.5461    0.0000 C   0  0
    2.7483   -0.8989    0.0000 C   0  0
    2.2652   -4.1079    0.0000 C   0  0
    2.4992   -4.8154    0.0000 C   0  0
    3.2329   -4.9703    0.0000 C   0  0
    3.7322   -4.4033    0.0000 C   0  0
    3.4953   -3.6982    0.0000 C   0  0
    2.2427   -0.3474    0.0000 O   0  0
    3.7155   -2.2162    0.0000 O   0  0
    4.2458   -2.7458    0.0000 C   0  0
    4.0478   -3.4636    0.0000 C   0  0
    4.5731   -3.9887    0.0000 C   0  0
    5.2954   -3.7970    0.0000 C   0  0
    5.4849   -3.0748    0.0000 C   0  0
    4.9580   -2.5489    0.0000 C   0  0
    5.1518   -1.8262    0.0000 C   0  0
    3.2959   -3.4625    0.0000 C   0  0
    3.4791   -0.7387    0.0000 N   0  0
    3.9787   -1.2953    0.0000 C   0  0
    4.7067   -1.1375    0.0000 C   0  0
    4.9372   -0.4254    0.0000 N   0  0
    4.4338    0.1293    0.0000 C   0  0
    3.6999   -0.0282    0.0000 C   0  0
    3.1979    0.5211    0.0000 C   0  0
    4.6632    0.8424    0.0000 C   0  0
 14 15  1  0
  7  8  1  0
 15 16  2  0
 16 10  1  0
  8  9  2  0
  9  5  1  0
  4  1  1  0
  7 10  1  0
  5  6  1  0
 11 17  2  0
  9 11  1  0
  2  3  1  0
  8 18  1  0
 18 19  1  0
 19 20  2  0
 20 21  1  0
 21 22  2  0
 22 23  1  0
 23 24  2  0
 24 19  1  0
 24 25  1  0
 20 26  1  0
 11 27  1  0
 27 28  1  0
  3  6  2  0
 10 12  2  0
  1  2  2  0
 12 13  1  0
  5  4  2  0
 27 32  1  0
 28 29  1  0
 29 30  1  0
 30 31  1  0
 31 32  1  0
 13 14  2  0
 32 33  1  0
  6  7  1  0
 31 34  1  0
M  END
>  <ID_NEW>
CPDRE1333

>  <pIC50>
5.3893398369101195

$$$$

  -MTS-   10172316392D 0   0.00000     0.00000     0

 37 41  0  0  1  0  0  0  0  0999 V2000
    6.4330   -4.1490    0.0000 C   0  0  0  0  0  0  0  0  0  0  0  0
    6.6440   -4.9430    0.0000 C   0  0  0  0  0  0  0  0  0  0  0  0
    7.4360   -5.1560    0.0000 C   0  0  0  0  0  0  0  0  0  0  0  0
    8.0170   -4.5760    0.0000 C   0  0  0  0  0  0  0  0  0  0  0  0
    7.8020   -3.7800    0.0000 C   0  0  0  0  0  0  0  0  0  0  0  0
    7.0100   -3.5700    0.0000 C   0  0  0  0  0  0  0  0  0  0  0  0
    4.1750   -2.1120    0.0000 N   0  0  0  0  0  0  0  0  0  0  0  0
    4.3870   -1.3120    0.0000 C   0  0  0  0  0  0  0  0  0  0  0  0
    3.8040   -0.7320    0.0000 C   0  0  1  0  0  0  0  0  0  0  0  0
    3.0050   -0.9450    0.0000 N   0  0  0  0  0  0  0  0  0  0  0  0
    2.7920   -1.7450    0.0000 C   0  0  0  0  0  0  0  0  0  0  0  0
    3.3790   -2.3320    0.0000 C   0  0  0  0  0  0  0  0  0  0  0  0
    3.0280   -4.9910    0.0000 C   0  0  0  0  0  0  0  0  0  0  0  0
    2.3100   -4.5800    0.0000 C   0  0  0  0  0  0  0  0  0  0  0  0
    2.3100   -3.7500    0.0000 N   0  0  0  0  0  0  0  0  0  0  0  0
    3.0240   -3.3380    0.0000 C   0  0  0  0  0  0  0  0  0  0  0  0
    4.5170   -3.4910    0.0000 C   0  0  0  0  0  0  0  0  0  0  0  0
    5.0070   -4.1540    0.0000 C   0  0  0  0  0  0  0  0  0  0  0  0
    4.5280   -4.8240    0.0000 N   0  0  0  0  0  0  0  0  0  0  0  0
    3.7420   -4.5760    0.0000 C   0  0  0  0  0  0  0  0  0  0  0  0
    3.7350   -3.7510    0.0000 C   0  0  0  0  0  0  0  0  0  0  0  0
    4.7890   -5.6070    0.0000 C   0  0  0  0  0  0  0  0  0  0  0  0
    4.2400   -6.2200    0.0000 C   0  0  0  0  0  0  0  0  0  0  0  0
    4.5000   -7.0020    0.0000 C   0  0  0  0  0  0  0  0  0  0  0  0
    5.3090   -7.1680    0.0000 C   0  0  0  0  0  0  0  0  0  0  0  0
    5.8570   -6.5460    0.0000 C   0  0  0  0  0  0  0  0  0  0  0  0
    5.5940   -5.7660    0.0000 C   0  0  0  0  0  0  0  0  0  0  0  0
    4.7660   -2.7040    0.0000 C   0  0  0  0  0  0  0  0  0  0  0  0
    5.5720   -2.5260    0.0000 O   0  0  0  0  0  0  0  0  0  0  0  0
    1.5970   -4.9940    0.0000 O   0  0  0  0  0  0  0  0  0  0  0  0
    0.8810   -4.5830    0.0000 C   0  0  0  0  0  0  0  0  0  0  0  0
    4.0170    0.0650    0.0000 C   0  0  0  0  0  0  0  0  0  0  0  0
    4.8120    0.2830    0.0000 O   0  0  0  0  0  0  0  0  0  0  0  0
    5.5250   -0.1290    0.0000 C   0  0  0  0  0  0  0  0  0  0  0  0
    5.7170   -3.7330    0.0000 C   0  0  0  0  0  0  0  0  0  0  0  0
    6.0540   -5.5250    0.0000 C   0  0  0  0  0  0  0  0  0  0  0  0
    7.4290   -5.9790    0.0000 F   0  0  0  0  0  0  0  0  0  0  0  0
  4  5  1  0  0  0  0
  2  3  1  0  0  0  0
  5  6  2  0  0  0  0
  6  1  1  0  0  0  0
 14 15  2  0  0  0  0
 15 16  1  0  0  0  0
 16 21  2  0  0  0  0
 20 21  1  0  0  0  0
 18 19  1  0  0  0  0
 17 18  2  0  0  0  0
 19 20  1  0  0  0  0
 21 17  1  0  0  0  0
 19 22  1  0  0  0  0
 22 23  1  0  0  0  0
 23 24  1  0  0  0  0
 24 25  1  0  0  0  0
 25 26  1  0  0  0  0
 26 27  1  0  0  0  0
 27 22  1  0  0  0  0
 17 28  1  0  0  0  0
 28 29  2  0  0  0  0
 14 30  1  0  0  0  0
 30 31  1  0  0  0  0
 28  7  1  0  0  0  0
  8  9  1  0  0  0  0
  9 10  1  0  0  0  0
 10 11  1  0  0  0  0
 11 12  1  0  0  0  0
  7  8  1  0  0  0  0
  7 12  1  0  0  0  0
  9 32  1  1  0  0  0
 20 13  2  0  0  0  0
 32 33  1  0  0  0  0
 13 14  1  0  0  0  0
 33 34  1  0  0  0  0
  1  2  2  0  0  0  0
 18 35  1  0  0  0  0
 35  1  1  0  0  0  0
  3  4  2  0  0  0  0
  2 36  1  0  0  0  0
  3 37  1  0  0  0  0
M  END
>  <ID_NEW>
CPDRE1334

>  <pIC50>
5.388276691992658

$$$$

  SciTegic12180813562D

 34 39  0  0  0  0            999 V2000
   -5.8306    0.9042    0.0000 C   0  0
   -5.8318    0.0768    0.0000 C   0  0
   -5.1169   -0.3360    0.0000 C   0  0
   -5.1187    1.3170    0.0000 N   0  0
   -4.4034    0.9078    0.0000 C   0  0
   -4.3985    0.0768    0.0000 C   0  0
   -3.6066   -0.1754    0.0000 N   0  0
   -3.1220    0.4998    0.0000 C   0  0
   -3.6145    1.1692    0.0000 C   0  0
   -3.3471   -0.9585    0.0000 C   0  0
   -3.3642    1.9553    0.0000 C   0  0
   -3.8973   -1.5745    0.0000 C   0  0
   -3.6383   -2.3570    0.0000 C   0  0
   -2.8296   -2.5244    0.0000 C   0  0
   -2.2803   -1.9032    0.0000 C   0  0
   -2.5422   -1.1231    0.0000 C   0  0
   -3.9198    2.5652    0.0000 O   0  0
   -2.3392    2.2545    0.0000 N   0  0
   -2.2970    0.5047    0.0000 O   0  0
   -1.4917    1.6060    0.0000 C   0  0
   -1.9752    3.2636    0.0000 C   0  0
   -0.9085    3.2314    0.0000 C   0  0
   -0.6076    2.2097    0.0000 C   0  0
    0.4571    2.1801    0.0000 C   0  0
    0.8143    3.1835    0.0000 N   0  0
   -0.0297    3.8332    0.0000 C   0  0
   -1.5875    0.0958    0.0000 C   0  0
   -1.5896   -0.7241    0.0000 C   0  0
   -0.8809   -1.1329    0.0000 C   0  0
   -0.1711   -0.7228    0.0000 C   0  0
   -0.1744    0.1003    0.0000 C   0  0
   -0.8837    0.5054    0.0000 C   0  0
   -2.3045   -1.1358    0.0000 C   0  0
   -0.8870    1.3304    0.0000 C   0  0
  6  7  1  0
 14 15  1  0
  7  8  1  0
 15 16  2  0
 16 10  1  0
  8  9  2  0
  9  5  1  0
  4  1  1  0
  7 10  1  0
  5  6  1  0
 11 17  2  0
  9 11  1  0
  2  3  1  0
 11 18  1  0
  8 19  1  0
  3  6  2  0
 10 12  2  0
  1  2  2  0
 12 13  1  0
  5  4  2  0
 13 14  2  0
 18 20  1  0
 20 23  1  0
 22 21  1  0
 21 18  1  0
 22 23  2  0
 23 24  1  0
 24 25  1  0
 25 26  1  0
 26 22  1  0
 19 27  1  0
 27 28  2  0
 28 29  1  0
 29 30  2  0
 30 31  1  0
 31 32  2  0
 32 27  1  0
 28 33  1  0
 32 34  1  0
M  END
>  <ID_NEW>
CPDRE1335

>  <pIC50>
5.35261702988538

$$$$

  SciTegic12180813502D

 34 38  0  0  0  0            999 V2000
    7.2194   -2.0416    0.0000 C   0  0
    7.2141   -2.8648    0.0000 C   0  0
    7.9232   -3.2792    0.0000 C   0  0
    8.6381   -2.8715    0.0000 C   0  0
    8.6395   -2.0452    0.0000 C   0  0
    7.9297   -1.6345    0.0000 C   0  0
    4.8334   -0.1750    0.0000 N   0  0
    4.8292    0.6500    0.0000 C   0  0
    4.1166    1.0566    0.0000 C   0  0
    3.4036    0.6428    0.0000 N   0  0
    3.4078   -0.1822    0.0000 C   0  0
    4.1249   -0.5934    0.0000 C   0  0
    3.0903   -1.6417    0.0000 C   0  0
    3.0891   -2.4690    0.0000 C   0  0
    3.8040   -2.8819    0.0000 N   0  0
    4.5175   -1.6380    0.0000 C   0  0
    4.5224   -2.4645    0.0000 C   0  0
    5.3099   -2.7153    0.0000 N   0  0
    5.7918   -2.0438    0.0000 C   0  0
    5.3020   -1.3781    0.0000 C   0  0
    5.5694   -3.4984    0.0000 C   0  0
    5.0178   -4.1100    0.0000 C   0  0
    5.2768   -4.8925    0.0000 C   0  0
    6.0855   -5.0600    0.0000 C   0  0
    6.6348   -4.4387    0.0000 C   0  0
    6.3730   -3.6586    0.0000 C   0  0
    5.5524   -0.5920    0.0000 C   0  0
    6.3583   -0.4158    0.0000 O   0  0
    2.3709   -1.2251    0.0000 O   0  0
    1.6542   -1.6334    0.0000 C   0  0
    6.5042   -1.6250    0.0000 C   0  0
    7.9250   -0.8083    0.0000 C   0  0
    9.2208   -1.4542    0.0000 F   0  0
    3.8000   -1.2250    0.0000 C   0  0
  1  2  2  0
  3  4  2  0
  4  5  1  0
 16 17  1  0
 17 18  1  0
 18 19  1  0
 19 20  2  0
 20 16  1  0
 18 21  1  0
 21 22  2  0
 22 23  1  0
 23 24  2  0
 24 25  1  0
 25 26  2  0
 26 21  1  0
 20 27  1  0
 27 28  2  0
 13 14  2  0
 14 15  1  0
 15 17  2  0
 27  7  1  0
 13 29  1  0
 29 30  1  0
 11 12  1  0
  7  8  1  0
  7 12  1  0
  8  9  1  0
  9 10  1  0
 10 11  1  0
  2  3  1  0
 19 31  1  0
 31  1  1  0
  5  6  2  0
  6 32  1  0
  6  1  1  0
  5 33  1  0
 13 34  1  0
 16 34  2  0
M  END
>  <ID_NEW>
CPDRE1336

>  <pIC50>
5.330683119433887

$$$$

  SciTegic12180813502D

 33 37  0  0  0  0            999 V2000
   -3.4099   -0.6736    0.0000 N   0  0
   -2.8834    0.0562    0.0000 C   0  0
   -3.4186    0.7844    0.0000 C   0  0
   -3.1319   -1.5317    0.0000 C   0  0
   -3.1482    1.6413    0.0000 C   0  0
   -2.2708    1.8342    0.0000 O   0  0
   -3.7303   -2.1975    0.0000 C   0  0
   -3.4476   -3.0508    0.0000 C   0  0
   -2.5646   -3.2350    0.0000 N   0  0
   -1.9611   -2.5554    0.0000 C   0  0
   -2.2521   -1.7044    0.0000 C   0  0
   -3.7509    2.3095    0.0000 N   0  0
   -3.4756    3.1676    0.0000 C   0  0
   -4.0822    3.8303    0.0000 C   0  0
   -4.9542    3.6456    0.0000 N   0  0
   -5.2351    2.7842    0.0000 C   0  0
   -4.6314    2.1158    0.0000 C   0  0
   -1.9791    0.0653    0.0000 O   0  0
   -1.0792    0.0667    0.0000 C   0  0
   -0.6298   -0.7160    0.0000 C   0  0
    0.2693   -0.7150    0.0000 C   0  0
    0.7189    0.0674    0.0000 C   0  0
    0.2633    0.8460    0.0000 C   0  0
   -0.6345    0.8414    0.0000 C   0  0
   -1.0800   -1.4971    0.0000 C   0  0
   -4.2724   -0.4020    0.0000 C   0  0
   -4.2791    0.4972    0.0000 C   0  0
   -5.0532    0.9436    0.0000 C   0  0
   -5.8326    0.4920    0.0000 C   0  0
   -5.8215   -0.4103    0.0000 C   0  0
   -5.0437   -0.8530    0.0000 C   0  0
    0.7096    1.6293    0.0000 F   0  0
   -1.0774   -2.7356    0.0000 O   0  0
  2 18  1  0
 18 19  1  0
 19 20  2  0
 20 21  1  0
 21 22  2  0
 22 23  1  0
 23 24  2  0
 24 19  1  0
 20 25  1  0
 26 27  2  0
 27 28  1  0
 28 29  2  0
 29 30  1  0
 30 31  2  0
 31 26  1  0
 26  1  1  0
  1  2  1  0
  2  3  2  0
  3 27  1  0
  1  4  1  0
  3  5  1  0
  5  6  2  0
  4  7  2  0
  7  8  1  0
  8  9  2  0
  9 10  1  0
 10 11  2  0
 11  4  1  0
  5 12  1  0
 12 13  1  0
 12 17  1  0
 13 14  1  0
 14 15  1  0
 15 16  1  0
 16 17  1  0
 23 32  1  0
 10 33  1  0
M  END
>  <ID_NEW>
CPDRE1337

>  <pIC50>
5.309803919971486

$$$$

  SciTegic12180813102D

 30 34  0  0  0  0            999 V2000
   -3.4901   -0.4236    0.0000 N   0  0
   -3.0082    0.2479    0.0000 C   0  0
   -3.4980    0.9136    0.0000 C   0  0
   -3.2306   -1.2067    0.0000 C   0  0
   -3.2476    1.6997    0.0000 C   0  0
   -2.4417    1.8759    0.0000 O   0  0
   -3.7822   -1.8183    0.0000 N   0  0
   -3.5232   -2.6008    0.0000 C   0  0
   -2.7145   -2.7683    0.0000 C   0  0
   -2.1652   -2.1470    0.0000 C   0  0
   -2.4270   -1.3669    0.0000 C   0  0
   -3.8032    2.3095    0.0000 N   0  0
   -3.5494    3.0968    0.0000 C   0  0
   -4.1011    3.7053    0.0000 C   0  0
   -4.9083    3.5331    0.0000 N   0  0
   -5.1607    2.7467    0.0000 C   0  0
   -4.6061    2.1325    0.0000 C   0  0
   -2.1832    0.2528    0.0000 O   0  0
   -1.7665   -0.4592    0.0000 C   0  0
   -2.1765   -1.1750    0.0000 C   0  0
   -0.9380   -1.8843    0.0000 C   0  0
   -0.5275   -1.1675    0.0000 C   0  0
   -1.7633   -1.8849    0.0000 C   0  0
   -0.9424   -0.4514    0.0000 C   0  0
   -4.2776   -0.1728    0.0000 C   0  0
   -4.2792    0.6514    0.0000 C   0  0
   -4.9926    1.0603    0.0000 C   0  0
   -5.7049    0.6462    0.0000 C   0  0
   -5.6993   -0.1811    0.0000 C   0  0
   -4.9854   -0.5863    0.0000 C   0  0
 10 11  2  0
 11  4  1  0
  5 12  1  0
 12 13  1  0
 12 17  1  0
 13 14  1  0
 14 15  1  0
 15 16  1  0
 16 17  1  0
  2 18  1  0
 18 19  1  0
 19 20  2  0
 21 22  1  0
 19 24  1  0
 20 23  1  0
 23 21  2  0
 22 24  2  0
 25 26  2  0
 26 27  1  0
 27 28  2  0
 28 29  1  0
 29 30  2  0
 30 25  1  0
 25  1  1  0
  1  2  1  0
  2  3  2  0
  3 26  1  0
  1  4  1  0
  3  5  1  0
  5  6  2  0
  4  7  2  0
  7  8  1  0
  8  9  2  0
  9 10  1  0
M  END
>  <ID_NEW>
CPDRE1338

>  <pIC50>
5.303643611266668

$$$$

  SciTegic12180813492D

 33 37  0  0  0  0            999 V2000
   10.2252   -2.5397    0.0000 C   0  0
   10.6316   -3.2512    0.0000 C   0  0
   11.4492   -3.2540    0.0000 C   0  0
   11.8613   -2.5459    0.0000 C   0  0
   11.4498   -1.8337    0.0000 C   0  0
   10.6336   -1.8344    0.0000 C   0  0
    7.6167   -0.6708    0.0000 N   0  0
    7.6125    0.1542    0.0000 C   0  0
    6.8999    0.5608    0.0000 C   0  0
    6.1869    0.1470    0.0000 N   0  0
    6.1911   -0.6780    0.0000 C   0  0
    6.9082   -1.0892    0.0000 C   0  0
    5.8736   -2.1375    0.0000 C   0  0
    5.8724   -2.9648    0.0000 C   0  0
    6.5873   -3.3777    0.0000 C   0  0
    6.5855   -1.7247    0.0000 N   0  0
    7.3008   -2.1338    0.0000 C   0  0
    7.3057   -2.9603    0.0000 C   0  0
    8.0932   -3.2111    0.0000 N   0  0
    8.5751   -2.5396    0.0000 C   0  0
    8.0853   -1.8739    0.0000 C   0  0
    8.3527   -3.9942    0.0000 C   0  0
    7.8011   -4.6058    0.0000 C   0  0
    8.0601   -5.3883    0.0000 C   0  0
    8.8688   -5.5558    0.0000 C   0  0
    9.4181   -4.9345    0.0000 C   0  0
    9.1563   -4.1544    0.0000 C   0  0
    8.3357   -1.0878    0.0000 C   0  0
    9.1416   -0.9116    0.0000 O   0  0
    5.1542   -1.7209    0.0000 O   0  0
    9.4000   -2.5375    0.0000 O   0  0
   10.2166   -1.1166    0.0000 C   0  0
   11.8541   -3.9625    0.0000 F   0  0
  1  2  2  0
  3  4  2  0
  4  5  1  0
 16 13  1  0
 17 18  1  0
 18 19  1  0
 19 20  1  0
 20 21  2  0
 21 17  1  0
 19 22  1  0
 22 23  2  0
 23 24  1  0
 24 25  2  0
 25 26  1  0
 26 27  2  0
 27 22  1  0
 21 28  1  0
 28 29  2  0
 13 14  2  0
 14 15  1  0
 15 18  2  0
 28  7  1  0
 13 30  1  0
 17 16  2  0
 11 12  1  0
  7  8  1  0
  7 12  1  0
  8  9  1  0
  9 10  1  0
 10 11  1  0
  2  3  1  0
 20 31  1  0
 31  1  1  0
  5  6  2  0
  6 32  1  0
  6  1  1  0
  3 33  1  0
M  END
>  <ID_NEW>
CPDRE1339

>  <pIC50>
5.301029995663981

$$$$

  SciTegic12180813452D

 31 35  0  0  0  0            999 V2000
    7.2294   -3.9689    0.0000 C   0  0
    7.6358   -4.6804    0.0000 C   0  0
    8.4534   -4.6832    0.0000 C   0  0
    8.8655   -3.9751    0.0000 C   0  0
    8.4540   -3.2629    0.0000 C   0  0
    7.6378   -3.2636    0.0000 C   0  0
    4.7500   -1.9292    0.0000 N   0  0
    4.9625   -1.1292    0.0000 C   0  0
    4.3792   -0.5484    0.0000 C   0  0
    3.5801   -0.7620    0.0000 N   0  0
    3.3676   -1.5620    0.0000 C   0  0
    3.9542   -2.1484    0.0000 C   0  0
    2.8778   -3.5666    0.0000 C   0  0
    2.8766   -4.3939    0.0000 C   0  0
    3.5915   -4.8068    0.0000 N   0  0
    3.5897   -3.1538    0.0000 C   0  0
    4.3050   -3.5629    0.0000 C   0  0
    4.3099   -4.3894    0.0000 C   0  0
    5.0974   -4.6402    0.0000 N   0  0
    5.5793   -3.9687    0.0000 C   0  0
    5.0895   -3.3030    0.0000 C   0  0
    5.3569   -5.4233    0.0000 C   0  0
    4.8053   -6.0349    0.0000 C   0  0
    5.0643   -6.8174    0.0000 C   0  0
    5.8730   -6.9849    0.0000 C   0  0
    6.4223   -6.3636    0.0000 C   0  0
    6.1605   -5.5835    0.0000 C   0  0
    5.3399   -2.5169    0.0000 C   0  0
    6.1458   -2.3407    0.0000 O   0  0
    6.4042   -3.9667    0.0000 O   0  0
    7.2208   -2.5458    0.0000 F   0  0
 28  7  1  0
  9 10  1  0
 10 11  1  0
 11 12  1  0
  7  8  1  0
  7 12  1  0
  8  9  1  0
 20 30  1  0
 30  1  1  0
  6 31  1  0
  4  5  1  0
  2  3  1  0
  5  6  2  0
  6  1  1  0
  1  2  2  0
  3  4  2  0
 17 16  2  0
 16 13  1  0
 17 18  1  0
 18 19  1  0
 19 20  1  0
 20 21  2  0
 21 17  1  0
 19 22  1  0
 22 23  2  0
 23 24  1  0
 24 25  2  0
 25 26  1  0
 26 27  2  0
 27 22  1  0
 21 28  1  0
 28 29  2  0
 13 14  2  0
 14 15  1  0
 15 18  2  0
M  END
>  <ID_NEW>
CPDRE1340

>  <pIC50>
5.2958494831602

$$$$

  SciTegic09112102102D

 34 35  0  0  0  0            999 V2000
    5.6194   -4.6251    0.0000 C   0  0
    5.6182   -5.4524    0.0000 C   0  0
    6.3330   -5.8653    0.0000 C   0  0
    7.0495   -5.4520    0.0000 C   0  0
    7.0466   -4.6214    0.0000 C   0  0
    6.3312   -4.2123    0.0000 C   0  0
    6.3328   -6.6903    0.0000 O   0  0
    5.6183   -7.1026    0.0000 C   0  0
    5.6180   -7.9276    0.0000 C   0  0
    4.9035   -8.3400    0.0000 C   0  0
    4.9033   -9.1650    0.0000 O   0  0
    4.1887   -9.5773    0.0000 C   0  0
    7.7595   -4.2062    0.0000 C   0  0
    8.4756   -4.6160    0.0000 C   0  0
    9.1885   -4.2008    0.0000 C   0  0
    9.1853   -3.3758    0.0000 O   0  0
    4.9052   -5.8647    0.0000 C   0  0
    4.1908   -5.4499    0.0000 C   0  0
    3.4765   -5.8611    0.0000 C   0  0
    3.4753   -6.6870    0.0000 C   0  0
    4.1945   -7.0999    0.0000 C   0  0
    4.9059   -6.6863    0.0000 C   0  0
    2.7611   -7.0998    0.0000 O   0  0
    2.0464   -6.6877    0.0000 C   0  0
    1.3321   -7.1005    0.0000 C   0  0
    2.0460   -5.8627    0.0000 C   0  0
    9.9045   -4.6105    0.0000 N   0  0
   10.6174   -4.1953    0.0000 C   0  0
   11.3334   -4.6050    0.0000 N   0  0
   10.6142   -3.3703    0.0000 N   0  0
   11.3366   -5.4300    0.0000 C   0  0
   12.0527   -5.8398    0.0000 C   0  0
   12.0558   -6.6648    0.0000 C   0  0
   12.7719   -7.0746    0.0000 C   0  0
  1  2  2  0
  5 13  1  0
 17 18  2  0
  3  4  2  0
 18 19  1  0
 13 14  1  0
 19 20  2  0
  3  7  1  0
 20 21  1  0
 14 15  1  0
 21 22  2  0
 22 17  1  0
  2 17  1  0
  7  8  1  0
 20 23  1  0
 23 24  1  0
  4  5  1  0
 24 25  1  0
 15 16  2  0
 24 26  1  0
 15 27  1  0
  8  9  1  0
 27 28  1  0
  2  3  1  0
 28 29  2  0
  9 10  1  0
 28 30  1  0
  5  6  2  0
 29 31  1  0
 10 11  1  0
 31 32  1  0
  6  1  1  0
 32 33  1  0
 11 12  1  0
 33 34  1  0
M  END
>  <ID_NEW>
CPDRE1341

>  <pIC50>
5.269621531412357

$$$$

  SciTegic12180813512D

 34 38  0  0  0  0            999 V2000
    7.1037   -4.0241    0.0000 C   0  0
    7.3146   -4.8185    0.0000 C   0  0
    8.1065   -5.0316    0.0000 C   0  0
    8.6882   -4.4513    0.0000 C   0  0
    8.4727   -3.6549    0.0000 C   0  0
    7.6812   -3.4455    0.0000 C   0  0
    4.8500   -1.9875    0.0000 N   0  0
    5.0625   -1.1875    0.0000 C   0  0
    4.4792   -0.6067    0.0000 C   0  0
    3.6801   -0.8203    0.0000 N   0  0
    3.4676   -1.6203    0.0000 C   0  0
    4.0542   -2.2067    0.0000 C   0  0
    2.9677   -3.6227    0.0000 C   0  0
    2.9665   -4.4501    0.0000 N   0  0
    3.6813   -4.8629    0.0000 C   0  0
    3.6795   -3.2099    0.0000 C   0  0
    5.1862   -3.3604    0.0000 C   0  0
    4.3949   -3.6191    0.0000 C   0  0
    4.3975   -4.4522    0.0000 C   0  0
    5.1913   -4.7059    0.0000 N   0  0
    5.6766   -4.0286    0.0000 C   0  0
    5.6119   -5.4250    0.0000 C   0  0
    6.4292   -5.4103    0.0000 C   0  0
    5.1985   -6.1302    0.0000 C   0  0
    6.8485   -6.1270    0.0000 C   0  0
    5.6177   -6.8469    0.0000 C   0  0
    6.4451   -6.8495    0.0000 C   0  0
    2.2531   -3.2104    0.0000 O   0  0
    1.5388   -3.6230    0.0000 C   0  0
    5.4385   -2.5750    0.0000 C   0  0
    6.2449   -2.4008    0.0000 O   0  0
    6.3875   -3.6084    0.0000 O   0  0
    7.4625   -2.6417    0.0000 C   0  0
    8.5125   -5.7417    0.0000 F   0  0
  1  2  2  0
  3  4  2  0
  4  5  1  0
 19 20  1  0
 20 21  1  0
 21 17  2  0
 22 23  1  0
 22 24  2  0
 22 20  1  0
 23 25  2  0
 24 26  1  0
 25 27  1  0
 26 27  2  0
 13 28  1  0
 28 29  1  0
 16 13  2  0
 18 19  2  0
 14 15  2  0
 15 19  1  0
 13 14  1  0
 18 16  1  0
 17 18  1  0
 17 30  1  0
 30 31  2  0
 30  7  1  0
  7  8  1  0
  7 12  1  0
  8  9  1  0
  9 10  1  0
 10 11  1  0
 11 12  1  0
  2  3  1  0
 21 32  1  0
 32  1  1  0
  5  6  2  0
  6 33  1  0
  6  1  1  0
  3 34  1  0
M  END
>  <ID_NEW>
CPDRE1342

>  <pIC50>
5.221848749616356

$$$$

  SciTegic12180813082D

 33 37  0  0  0  0            999 V2000
    7.8113   -6.4484    0.0000 C   0  0
    7.8045   -7.0142    0.0000 C   0  0
    8.3538   -6.2796    0.0000 C   0  0
    7.3202   -6.1543    0.0000 C   0  0
    8.3415   -7.1996    0.0000 N   0  0
    7.3021   -7.2939    0.0000 C   0  0
    8.6823   -6.7466    0.0000 C   0  0
    6.8171   -6.4341    0.0000 C   0  0
    6.8101   -6.9998    0.0000 C   0  0
    8.5365   -5.7401    0.0000 C   0  0
    9.0930   -5.6290    0.0000 O   0  0
    8.3334   -7.7625    0.0000 C   0  0
    8.8209   -8.0416    0.0000 C   0  0
    9.7941   -8.6006    0.0000 C   0  0
    9.7903   -8.0359    0.0000 C   0  0
    9.3030   -7.7594    0.0000 C   0  0
    8.8194   -8.6071    0.0000 C   0  0
    9.3017   -8.8867    0.0000 C   0  0
    9.2532   -6.7557    0.0000 O   0  0
    9.3020   -9.4562    0.0000 O   0  0
    8.8090   -9.7412    0.0000 C   0  0
    8.2458   -5.2417    0.0000 N   0  0
    8.5337   -4.7408    0.0000 C   0  0
    8.2456   -4.2439    0.0000 C   0  0
    7.6683   -4.2433    0.0000 N   0  0
    7.3804   -4.7442    0.0000 C   0  0
    7.6698   -5.2455    0.0000 C   0  0
    9.8208   -6.7542    0.0000 C   0  0
   10.1047   -7.2466    0.0000 C   0  0
   10.6718   -7.2453    0.0000 C   0  0
   10.9549   -6.7526    0.0000 C   0  0
   10.6667   -6.2601    0.0000 C   0  0
   10.1005   -6.2638    0.0000 C   0  0
  1  2  2  0
  1  3  1  0
  1  4  1  0
  2  5  1  0
  2  6  1  0
  3  7  2  0
  4  8  2  0
  6  9  2  0
  5  7  1  0
  8  9  1  0
  3 10  1  0
 10 11  2  0
  5 12  1  0
 12 13  1  0
 13 17  2  0
 18 14  2  0
 14 15  1  0
 15 16  2  0
 16 13  1  0
 18 17  1  0
  7 19  1  0
 18 20  1  0
 20 21  1  0
 10 22  1  0
 22 23  1  0
 22 27  1  0
 23 24  1  0
 24 25  1  0
 25 26  1  0
 26 27  1  0
 19 28  1  0
 28 29  2  0
 29 30  1  0
 30 31  2  0
 31 32  1  0
 32 33  2  0
 33 28  1  0
M  END
>  <ID_NEW>
CPDRE1343

>  <pIC50>
5.198596289982644

$$$$

  SciTegic12180813452D

 30 34  0  0  0  0            999 V2000
    3.0544   -4.4383    0.0000 C   0  0
    2.6377   -5.1486    0.0000 C   0  0
    3.0444   -5.8626    0.0000 C   0  0
    3.8678   -5.8674    0.0000 C   0  0
    4.2827   -5.1523    0.0000 C   0  0
    3.8736   -4.4413    0.0000 C   0  0
    1.2186   -4.5544    0.0000 C   0  0
    0.5029   -4.9608    0.0000 C   0  0
    0.4981   -5.7820    0.0000 C   0  0
    1.2082   -6.1977    0.0000 C   0  0
    1.9246   -5.7862    0.0000 C   0  0
    1.9259   -4.9664    0.0000 C   0  0
    2.6458   -1.2458    0.0000 N   0  0
    3.3583   -0.8292    0.0000 C   0  0
    3.3538   -0.0084    0.0000 C   0  0
    2.6383    0.4020    0.0000 N   0  0
    1.9258   -0.0146    0.0000 C   0  0
    1.9288   -0.8417    0.0000 C   0  0
    0.5098   -3.3084    0.0000 C   0  0
    0.5067   -2.4852    0.0000 C   0  0
   -0.2065   -2.0780    0.0000 C   0  0
   -0.9173   -2.4929    0.0000 C   0  0
   -0.9103   -3.3192    0.0000 C   0  0
   -0.1964   -3.7227    0.0000 N   0  0
    1.9369   -3.3146    0.0000 C   0  0
    1.9393   -2.4896    0.0000 C   0  0
    1.2278   -3.7292    0.0000 N   0  0
    2.6458   -3.7250    0.0000 C   0  0
    2.6500   -2.0708    0.0000 C   0  0
    3.3625   -2.4833    0.0000 O   0  0
 19 27  1  0
 27 25  1  0
 26 20  1  0
 27  7  1  0
  5  6  2  0
 25 28  1  0
 28  1  1  0
  6  1  1  0
 26 29  1  0
  2  3  1  0
 29 30  2  0
 29 13  1  0
  7  8  2  0
  3  4  2  0
 13 18  1  0
 14 15  1  0
 15 16  1  0
 16 17  1  0
 17 18  1  0
  8  9  1  0
  1  2  2  0
 19 20  2  0
  9 10  2  0
 20 21  1  0
  4  5  1  0
 21 22  2  0
 10 11  1  0
 22 23  1  0
 23 24  2  0
 24 19  1  0
 25 26  2  0
 11 12  2  0
 12  7  1  0
 13 14  1  0
M  END
>  <ID_NEW>
CPDRE1344

>  <pIC50>
5.193141970481181

$$$$

  SciTegic12180813082D

 31 35  0  0  0  0            999 V2000
   -2.0638   -0.9605    0.0000 N   0  0
   -1.3569   -0.5398    0.0000 C   0  0
   -2.7810   -0.5467    0.0000 C   0  0
   -2.0603   -1.7846    0.0000 C   0  0
   -1.3603    0.2844    0.0000 C   0  0
   -0.5603   -0.7501    0.0000 O   0  0
   -2.7845    0.2775    0.0000 C   0  0
   -3.4983   -0.9674    0.0000 C   0  0
   -2.7741   -2.1984    0.0000 C   0  0
   -1.3431   -2.1880    0.0000 C   0  0
   -0.7810    0.8706    0.0000 C   0  0
   -0.3500   -1.5467    0.0000 C   0  0
   -3.5017    0.6878    0.0000 C   0  0
   -4.2121   -0.5536    0.0000 C   0  0
   -2.7672   -3.0225    0.0000 C   0  0
   -1.3362   -3.0087    0.0000 C   0  0
    0.0190    0.6637    0.0000 O   0  0
   -0.9328   -2.1260    0.0000 C   0  0
    0.4431   -1.7570    0.0000 C   0  0
   -4.2121    0.2740    0.0000 C   0  0
   -2.0500   -3.4329    0.0000 C   0  0
   -0.7224   -2.9225    0.0000 C   0  0
    0.6569   -2.5501    0.0000 C   0  0
    0.0741   -3.1363    0.0000 C   0  0
   -1.0004    1.6659    0.0000 N   0  0
   -0.4169    2.2494    0.0000 C   0  0
   -0.6334    3.0417    0.0000 C   0  0
   -1.4311    3.2536    0.0000 N   0  0
   -2.0123    2.6666    0.0000 C   0  0
   -1.7957    1.8678    0.0000 C   0  0
   -2.8100    2.8770    0.0000 C   0  0
  6 12  1  0
  7 13  2  0
  8 14  1  0
  9 15  1  0
 10 16  2  0
 11 17  2  0
 12 18  2  0
 12 19  1  0
 13 20  1  0
 15 21  2  0
 18 22  1  0
 19 23  2  0
 22 24  2  0
  5  7  1  0
 14 20  2  0
 16 21  1  0
 23 24  1  0
 11 25  1  0
 25 26  1  0
 25 30  1  0
 26 27  1  0
 27 28  1  0
 28 29  1  0
 29 30  1  0
 29 31  1  0
  1  2  1  0
  1  3  1  0
  1  4  1  0
  2  5  2  0
  2  6  1  0
  3  7  1  0
  3  8  2  0
  4  9  2  0
  4 10  1  0
  5 11  1  0
M  END
>  <ID_NEW>
CPDRE1345

>  <pIC50>
5.189767482004915

$$$$

  SciTegic12180813492D

 34 38  0  0  0  0            999 V2000
   11.8836   -3.3814    0.0000 C   0  0
   12.2900   -4.0929    0.0000 C   0  0
   13.1076   -4.0957    0.0000 C   0  0
   13.5197   -3.3876    0.0000 C   0  0
   13.1082   -2.6754    0.0000 C   0  0
   12.2920   -2.6761    0.0000 C   0  0
    9.2751   -1.5125    0.0000 N   0  0
    9.2709   -0.6875    0.0000 C   0  0
    8.5583   -0.2809    0.0000 C   0  0
    7.8453   -0.6947    0.0000 N   0  0
    7.8495   -1.5197    0.0000 C   0  0
    8.5666   -1.9309    0.0000 C   0  0
    7.5320   -2.9792    0.0000 C   0  0
    7.5308   -3.8065    0.0000 C   0  0
    8.2457   -4.2194    0.0000 C   0  0
    8.2439   -2.5664    0.0000 N   0  0
    8.9592   -2.9755    0.0000 C   0  0
    8.9641   -3.8020    0.0000 C   0  0
    9.7516   -4.0528    0.0000 N   0  0
   10.2335   -3.3813    0.0000 C   0  0
    9.7437   -2.7156    0.0000 C   0  0
   10.0111   -4.8359    0.0000 C   0  0
    9.4595   -5.4475    0.0000 C   0  0
    9.7185   -6.2300    0.0000 C   0  0
   10.5272   -6.3975    0.0000 C   0  0
   11.0765   -5.7762    0.0000 C   0  0
   10.8147   -4.9961    0.0000 C   0  0
    9.9941   -1.9295    0.0000 C   0  0
   10.8000   -1.7533    0.0000 O   0  0
    6.8126   -2.5626    0.0000 O   0  0
    6.0959   -2.9709    0.0000 C   0  0
   11.0584   -3.3792    0.0000 O   0  0
   11.8750   -1.9583    0.0000 C   0  0
   13.5125   -4.8042    0.0000 F   0  0
  1  2  2  0
  3  4  2  0
  4  5  1  0
 16 13  1  0
 17 18  1  0
 18 19  1  0
 19 20  1  0
 20 21  2  0
 21 17  1  0
 19 22  1  0
 22 23  2  0
 23 24  1  0
 24 25  2  0
 25 26  1  0
 26 27  2  0
 27 22  1  0
 21 28  1  0
 28 29  2  0
 13 14  2  0
 14 15  1  0
 15 18  2  0
 28  7  1  0
 13 30  1  0
 17 16  2  0
 30 31  1  0
 11 12  1  0
  7  8  1  0
  7 12  1  0
  8  9  1  0
  9 10  1  0
 10 11  1  0
  2  3  1  0
 20 32  1  0
 32  1  1  0
  5  6  2  0
  6 33  1  0
  6  1  1  0
  3 34  1  0
M  END
>  <ID_NEW>
CPDRE1346

>  <pIC50>
5.178486471595226

$$$$

  -MTS-   10172316392D 0   0.00000     0.00000     0

 33 37  0  0  1  0  0  0  0  0999 V2000
    0.7500   -0.4800    0.0000 N   0  0  0  0  0  0  0  0  0  0  0  0
    0.7500   -1.1840    0.0000 C   0  0  0  0  0  0  0  0  0  0  0  0
    1.4220   -1.4020    0.0000 C   0  0  0  0  0  0  0  0  0  0  0  0
    1.8380   -0.8320    0.0000 C   0  0  0  0  0  0  0  0  0  0  0  0
    1.4220   -0.2610    0.0000 C   0  0  0  0  0  0  0  0  0  0  0  0
   -0.4680   -0.4790    0.0000 C   0  0  0  0  0  0  0  0  0  0  0  0
   -0.4690   -1.1810    0.0000 C   0  0  0  0  0  0  0  0  0  0  0  0
    0.1410   -1.5360    0.0000 C   0  0  0  0  0  0  0  0  0  0  0  0
    0.1390   -0.1290    0.0000 C   0  0  0  0  0  0  0  0  0  0  0  0
    1.6390   -2.0700    0.0000 C   0  0  0  0  0  0  0  0  0  0  0  0
    2.5430   -0.8320    0.0000 C   0  0  0  0  0  0  0  0  0  0  0  0
    2.8930   -1.4380    0.0000 C   0  0  0  0  0  0  0  0  0  0  0  0
    2.5390   -2.0470    0.0000 C   0  0  0  0  0  0  0  0  0  0  0  0
    2.8880   -2.6570    0.0000 C   0  0  0  0  0  0  0  0  0  0  0  0
    3.5930   -2.6570    0.0000 C   0  0  0  0  0  0  0  0  0  0  0  0
    3.9470   -2.0420    0.0000 C   0  0  0  0  0  0  0  0  0  0  0  0
    3.5910   -1.4390    0.0000 C   0  0  0  0  0  0  0  0  0  0  0  0
    1.1650   -2.5870    0.0000 C   0  0  0  0  0  0  0  0  0  0  0  0
    1.3860   -3.2540    0.0000 C   0  0  0  0  0  0  0  0  0  0  0  0
    2.0730   -3.4010    0.0000 C   0  0  0  0  0  0  0  0  0  0  0  0
    2.5460   -2.8750    0.0000 C   0  0  0  0  0  0  0  0  0  0  0  0
    2.3270   -2.2100    0.0000 C   0  0  0  0  0  0  0  0  0  0  0  0
    3.9430   -0.8270    0.0000 C   0  0  0  0  0  0  0  0  0  0  0  0
    4.6510   -2.0390    0.0000 F   0  0  0  0  0  0  0  0  0  0  0  0
    1.6390    0.4070    0.0000 C   0  0  0  0  0  0  0  0  0  0  0  0
    2.3300    0.5530    0.0000 N   0  0  0  0  0  0  0  0  0  0  0  0
    1.1660    0.9280    0.0000 O   0  0  0  0  0  0  0  0  0  0  0  0
    2.8480    0.0820    0.0000 C   0  0  0  0  0  0  0  0  0  0  0  0
    3.4580    0.4320    0.0000 C   0  0  2  0  0  0  0  0  0  0  0  0
    3.3120    1.1180    0.0000 C   0  0  1  0  0  0  0  0  0  0  0  0
    2.6120    1.1920    0.0000 C   0  0  0  0  0  0  0  0  0  0  0  0
    3.7850    1.6400    0.0000 N   0  0  0  0  0  0  0  0  0  0  0  0
    4.0990    0.1470    0.0000 O   0  0  0  0  0  0  0  0  0  0  0  0
 22 10  1  0  0  0  0
  5  1  1  0  0  0  0
 17 23  1  0  0  0  0
  4 11  1  0  0  0  0
 16 24  1  0  0  0  0
  5 25  1  0  0  0  0
  1  2  1  0  0  0  0
 25 26  1  0  0  0  0
 11 12  1  0  0  0  0
 25 27  2  0  0  0  0
 26 28  1  0  0  0  0
 12 13  2  0  0  0  0
  6  7  1  0  0  0  0
 13 14  1  0  0  0  0
  2  3  2  0  0  0  0
 28 29  1  0  0  0  0
 29 30  1  0  0  0  0
 30 31  1  0  0  0  0
 31 26  1  0  0  0  0
 14 15  2  0  0  0  0
 30 32  1  1  0  0  0
  7  8  2  0  0  0  0
 29 33  1  6  0  0  0
 15 16  1  0  0  0  0
  8  2  1  0  0  0  0
 16 17  2  0  0  0  0
 17 12  1  0  0  0  0
  3  4  1  0  0  0  0
 10 18  2  0  0  0  0
  1  9  1  0  0  0  0
 18 19  1  0  0  0  0
  9  6  2  0  0  0  0
 19 20  2  0  0  0  0
  4  5  2  0  0  0  0
 20 21  1  0  0  0  0
  3 10  1  0  0  0  0
 21 22  2  0  0  0  0
M  END
>  <ID_NEW>
CPDRE1347

>  <pIC50>
5.172630726946174

$$$$

  SciTegic12180813512D

 34 38  0  0  0  0            999 V2000
    2.5436   -5.0752    0.0000 C   0  0
    1.8279   -5.4817    0.0000 C   0  0
    1.8231   -6.3028    0.0000 C   0  0
    2.5332   -6.7185    0.0000 C   0  0
    3.2496   -6.3070    0.0000 C   0  0
    3.2509   -5.4872    0.0000 C   0  0
    4.4211   -4.6966    0.0000 C   0  0
    4.0044   -5.4070    0.0000 C   0  0
    4.4111   -6.1209    0.0000 C   0  0
    5.2345   -6.1258    0.0000 C   0  0
    5.6494   -5.4107    0.0000 C   0  0
    5.2402   -4.6996    0.0000 C   0  0
    3.5417   -1.5708    0.0000 N   0  0
    4.2542   -1.1542    0.0000 C   0  0
    4.2496   -0.3334    0.0000 C   0  0
    3.5342    0.0770    0.0000 N   0  0
    2.8217   -0.3396    0.0000 C   0  0
    2.8246   -1.1667    0.0000 C   0  0
    1.8776   -3.7703    0.0000 C   0  0
    2.0907   -2.9723    0.0000 C   0  0
    1.5069   -2.3908    0.0000 C   0  0
    0.7097   -2.6060    0.0000 C   0  0
    0.4996   -3.4080    0.0000 C   0  0
    1.0850   -3.9861    0.0000 C   0  0
    2.5500   -4.2541    0.0000 N   0  0
    3.2193   -3.7717    0.0000 C   0  0
    2.9625   -2.9834    0.0000 C   0  0
    4.0125   -3.9833    0.0000 O   0  0
    3.5458   -2.3958    0.0000 C   0  0
    4.3417   -2.6083    0.0000 O   0  0
    4.9583    0.0833    0.0000 C   0  0
    5.6708   -0.3292    0.0000 C   0  0
    6.3833    0.0875    0.0000 C   0  0
    7.0958   -0.3250    0.0000 C   0  0
 15 16  1  0
 16 17  1  0
 17 18  1  0
  4  5  1  0
  9 10  2  0
 19 20  2  0
  2  3  1  0
 20 21  1  0
 10 11  1  0
 21 22  2  0
  5  6  2  0
 22 23  1  0
 11 12  2  0
 23 24  2  0
 24 19  1  0
 12  7  1  0
 13 14  1  0
 26 27  2  0
  6  1  1  0
 25 26  1  0
 27 20  1  0
 19 25  1  0
 25  1  1  0
  1  2  2  0
 26 28  1  0
 28  7  1  0
  3  4  2  0
 27 29  1  0
  7  8  2  0
 29 30  2  0
 29 13  1  0
 15 31  1  0
  8  9  1  0
 31 32  1  0
 13 18  1  0
 32 33  1  0
 14 15  1  0
 33 34  1  0
M  END
>  <ID_NEW>
CPDRE1348

>  <pIC50>
5.161780778092374

$$$$

  -MTS-   10172316392D 0   0.00000     0.00000     0

 36 40  0  0  1  0  0  0  0  0999 V2000
    6.1820   -3.9110    0.0000 C   0  0  0  0  0  0  0  0  0  0  0  0
    6.3730   -4.6270    0.0000 C   0  0  0  0  0  0  0  0  0  0  0  0
    7.0860   -4.8180    0.0000 C   0  0  0  0  0  0  0  0  0  0  0  0
    7.6100   -4.2950    0.0000 C   0  0  0  0  0  0  0  0  0  0  0  0
    7.4150   -3.5780    0.0000 C   0  0  0  0  0  0  0  0  0  0  0  0
    6.7020   -3.3900    0.0000 C   0  0  0  0  0  0  0  0  0  0  0  0
    3.8170   -1.9870    0.0000 N   0  0  0  0  0  0  0  0  0  0  0  0
    3.8120   -1.2330    0.0000 C   0  0  0  0  0  0  0  0  0  0  0  0
    3.1610   -0.8620    0.0000 C   0  0  1  0  0  0  0  0  0  0  0  0
    2.5090   -1.2400    0.0000 N   0  0  0  0  0  0  0  0  0  0  0  0
    2.5130   -1.9950    0.0000 C   0  0  0  0  0  0  0  0  0  0  0  0
    3.1690   -2.3700    0.0000 C   0  0  0  0  0  0  0  0  0  0  0  0
    2.3300   -3.7460    0.0000 C   0  0  0  0  0  0  0  0  0  0  0  0
    2.4480   -4.4860    0.0000 C   0  0  0  0  0  0  0  0  0  0  0  0
    3.1430   -4.7550    0.0000 C   0  0  0  0  0  0  0  0  0  0  0  0
    2.9120   -3.2740    0.0000 N   0  0  0  0  0  0  0  0  0  0  0  0
    4.2820   -3.2060    0.0000 C   0  0  0  0  0  0  0  0  0  0  0  0
    3.6160   -3.5430    0.0000 C   0  0  0  0  0  0  0  0  0  0  0  0
    3.7310   -4.2830    0.0000 C   0  0  0  0  0  0  0  0  0  0  0  0
    4.4710   -4.4040    0.0000 N   0  0  0  0  0  0  0  0  0  0  0  0
    4.8120   -3.7350    0.0000 C   0  0  0  0  0  0  0  0  0  0  0  0
    4.8120   -5.0750    0.0000 C   0  0  0  0  0  0  0  0  0  0  0  0
    4.4020   -5.7020    0.0000 C   0  0  0  0  0  0  0  0  0  0  0  0
    5.5600   -5.1140    0.0000 C   0  0  0  0  0  0  0  0  0  0  0  0
    4.7390   -6.3690    0.0000 C   0  0  0  0  0  0  0  0  0  0  0  0
    5.8970   -5.7800    0.0000 C   0  0  0  0  0  0  0  0  0  0  0  0
    5.4910   -6.4120    0.0000 C   0  0  0  0  0  0  0  0  0  0  0  0
    4.4030   -2.4660    0.0000 C   0  0  0  0  0  0  0  0  0  0  0  0
    5.1040   -2.1980    0.0000 O   0  0  0  0  0  0  0  0  0  0  0  0
    3.3500   -0.1330    0.0000 C   0  0  0  0  0  0  0  0  0  0  0  0
    4.0000    0.2460    0.0000 C   0  0  0  0  0  0  0  0  0  0  0  0
    3.9960    1.0000    0.0000 C   0  0  0  0  0  0  0  0  0  0  0  0
    4.7250    0.0540    0.0000 C   0  0  0  0  0  0  0  0  0  0  0  0
    5.5330   -3.5370    0.0000 O   0  0  0  0  0  0  0  0  0  0  0  0
    6.5100   -2.6780    0.0000 C   0  0  0  0  0  0  0  0  0  0  0  0
    5.8490   -5.1490    0.0000 C   0  0  0  0  0  0  0  0  0  0  0  0
  4  5  1  0  0  0  0
  2  3  1  0  0  0  0
  5  6  2  0  0  0  0
 26 27  1  0  0  0  0
 16 13  2  0  0  0  0
 18 19  2  0  0  0  0
 14 15  2  0  0  0  0
 15 19  1  0  0  0  0
 13 14  1  0  0  0  0
 18 16  1  0  0  0  0
 17 18  1  0  0  0  0
 17 28  1  0  0  0  0
 28 29  2  0  0  0  0
 19 20  1  0  0  0  0
 20 21  1  0  0  0  0
 21 17  2  0  0  0  0
 22 23  2  0  0  0  0
 22 24  1  0  0  0  0
 22 20  1  0  0  0  0
 28  7  1  0  0  0  0
  7  8  1  0  0  0  0
  7 12  1  0  0  0  0
  8  9  1  0  0  0  0
  9 10  1  0  0  0  0
 10 11  1  0  0  0  0
 11 12  1  0  0  0  0
  9 30  1  1  0  0  0
 23 25  1  0  0  0  0
 30 31  1  0  0  0  0
 24 26  2  0  0  0  0
 31 32  1  0  0  0  0
 25 27  2  0  0  0  0
 31 33  1  0  0  0  0
  6  1  1  0  0  0  0
 21 34  1  0  0  0  0
 34  1  1  0  0  0  0
  1  2  2  0  0  0  0
  6 35  1  0  0  0  0
  3  4  2  0  0  0  0
  2 36  1  0  0  0  0
M  END
>  <ID_NEW>
CPDRE1349

>  <pIC50>
5.153662887870194

$$$$

  SciTegic12180813512D

 32 36  0  0  0  0            999 V2000
    4.3417   -1.7833    0.0000 N   0  0
    4.5542   -2.5792    0.0000 C   0  0
    5.3452   -2.7919    0.0000 C   0  0
    5.9294   -2.2120    0.0000 N   0  0
    5.7169   -1.4161    0.0000 C   0  0
    4.9202   -1.2002    0.0000 C   0  0
    4.1419   -4.1549    0.0000 C   0  0
    3.7252   -4.8653    0.0000 C   0  0
    4.1319   -5.5793    0.0000 C   0  0
    4.9553   -5.5841    0.0000 C   0  0
    5.3702   -4.8690    0.0000 C   0  0
    4.9611   -4.1579    0.0000 C   0  0
    2.5436   -4.2502    0.0000 C   0  0
    1.8279   -4.6567    0.0000 C   0  0
    1.8231   -5.4778    0.0000 C   0  0
    2.5332   -5.8935    0.0000 C   0  0
    3.2496   -5.4820    0.0000 C   0  0
    3.2509   -4.6622    0.0000 C   0  0
    1.8776   -2.9453    0.0000 C   0  0
    2.0907   -2.1473    0.0000 C   0  0
    1.5069   -1.5658    0.0000 C   0  0
    0.7097   -1.7810    0.0000 C   0  0
    0.4996   -2.5830    0.0000 C   0  0
    1.0850   -3.1611    0.0000 C   0  0
    2.5500   -3.4291    0.0000 N   0  0
    3.2193   -2.9467    0.0000 C   0  0
    2.9625   -2.1584    0.0000 C   0  0
    3.9292   -3.3583    0.0000 O   0  0
    3.5458   -1.5708    0.0000 C   0  0
    3.1292   -0.8542    0.0000 O   0  0
    5.9292   -0.6125    0.0000 C   0  0
    6.5125   -1.1958    0.0000 C   0  0
 25 26  1  0
 27 20  1  0
 19 25  1  0
 25 13  1  0
  5  6  1  0
 26 28  1  0
 28  7  1  0
 13 14  2  0
 27 29  1  0
 29 30  2  0
 29  1  1  0
 14 15  1  0
  5 31  1  0
  5 32  1  0
 15 16  2  0
  7  8  2  0
 16 17  1  0
  1  2  1  0
 17 18  2  0
 18 13  1  0
  8  9  1  0
  1  6  1  0
 19 20  2  0
  9 10  2  0
 20 21  1  0
  2  3  1  0
 21 22  2  0
 10 11  1  0
 22 23  1  0
  3  4  1  0
 23 24  2  0
 24 19  1  0
 11 12  2  0
 12  7  1  0
 26 27  2  0
  4  5  1  0
M  END
>  <ID_NEW>
CPDRE1350

>  <pIC50>
5.134896025358872

$$$$

  SciTegic12180813542D

 34 39  0  0  0  0            999 V2000
    7.7411   -4.7491    0.0000 C   0  0
    7.9521   -5.5435    0.0000 C   0  0
    8.7440   -5.7566    0.0000 C   0  0
    9.3257   -5.1762    0.0000 C   0  0
    9.1101   -4.3798    0.0000 C   0  0
    8.3186   -4.1705    0.0000 C   0  0
    3.7854   -0.1390    0.0000 N   0  0
    4.7523   -0.2380    0.0000 C   0  0
    3.4122   -1.0366    0.0000 C   0  0
    4.9758   -1.1991    0.0000 C   0  0
    4.1511   -1.6905    0.0000 C   0  0
    5.3211   -2.7161    0.0000 N   0  0
    5.7147   -1.8530    0.0000 C   0  0
    4.3746   -2.6516    0.0000 C   0  0
    3.4385   -4.3478    0.0000 C   0  0
    3.4373   -5.1752    0.0000 C   0  0
    4.1521   -5.5880    0.0000 C   0  0
    4.1503   -3.9350    0.0000 N   0  0
    5.6570   -4.0855    0.0000 C   0  0
    4.8657   -4.3442    0.0000 C   0  0
    4.8683   -5.1773    0.0000 C   0  0
    5.6621   -5.4310    0.0000 N   0  0
    6.1474   -4.7537    0.0000 C   0  0
    6.0827   -6.1501    0.0000 C   0  0
    6.9000   -6.1354    0.0000 C   0  0
    5.6693   -6.8553    0.0000 C   0  0
    7.3193   -6.8521    0.0000 C   0  0
    6.0885   -7.5720    0.0000 C   0  0
    6.9159   -7.5746    0.0000 C   0  0
    5.9093   -3.3001    0.0000 C   0  0
    6.7157   -3.1259    0.0000 O   0  0
    6.9416   -4.5333    0.0000 O   0  0
    8.1034   -3.3741    0.0000 C   0  0
    7.3677   -6.1259    0.0000 C   0  0
  1  2  2  0
  3  4  2  0
  4  5  1  0
  8  7  1  0
  9  7  1  0
 10  8  1  0
 11  9  1  0
 12 14  1  0
 13 10  1  0
 14 11  1  0
 11 10  1  0
 13 12  1  0
 24 25  1  0
 24 26  2  0
 24 22  1  0
 25 27  2  0
 26 28  1  0
 27 29  1  0
 28 29  2  0
 18 15  2  0
 20 21  2  0
 16 17  2  0
 17 21  1  0
 15 16  1  0
 20 18  1  0
 19 20  1  0
 19 30  1  0
 30 31  2  0
 21 22  1  0
 22 23  1  0
 23 19  2  0
 30 12  1  0
  2  3  1  0
 23 32  1  0
 32  1  1  0
  5  6  2  0
  6 33  1  0
  6  1  1  0
  2 34  1  0
M  END
>  <ID_NEW>
CPDRE1351

>  <pIC50>
5.108462542327435

$$$$

  SciTegic12180813072D

 34 38  0  0  0  0            999 V2000
   -5.6338    0.7738    0.0000 C   0  0
   -5.7053   -0.0521    0.0000 C   0  0
   -5.0168   -0.5149    0.0000 C   0  0
   -4.8824    1.1338    0.0000 C   0  0
   -4.2026    0.6634    0.0000 C   0  0
   -4.2657   -0.1637    0.0000 C   0  0
   -3.5059   -0.4819    0.0000 N   0  0
   -2.9613    0.1485    0.0000 C   0  0
   -3.3937    0.8572    0.0000 C   0  0
   -3.3034   -1.2873    0.0000 C   0  0
   -3.9118   -1.8602    0.0000 C   0  0
   -3.7180   -2.6693    0.0000 C   0  0
   -2.9237   -2.9009    0.0000 C   0  0
   -2.3195   -2.3319    0.0000 C   0  0
   -2.5135   -1.5227    0.0000 C   0  0
   -3.0747    1.6213    0.0000 C   0  0
   -2.2563    1.7293    0.0000 O   0  0
   -3.5869    2.2825    0.0000 N   0  0
   -3.2640    3.0464    0.0000 C   0  0
   -3.7719    3.7071    0.0000 C   0  0
   -4.5946    3.5994    0.0000 N   0  0
   -4.9092    2.8350    0.0000 C   0  0
   -4.4058    2.1702    0.0000 C   0  0
   -2.1590   -0.0570    0.0000 O   0  0
   -1.3619    0.1657    0.0000 C   0  0
   -0.7764   -0.4213    0.0000 C   0  0
    0.0211   -0.2089    0.0000 C   0  0
    0.2344    0.5900    0.0000 C   0  0
   -0.3561    1.1765    0.0000 C   0  0
   -1.1515    0.9610    0.0000 C   0  0
   -0.1458    1.9792    0.0000 C   0  0
   -0.8625    2.3917    0.0000 F   0  0
    0.0667    2.7792    0.0000 F   0  0
    0.6792    1.9792    0.0000 F   0  0
  2  3  1  0
  3  6  2  0
  5  4  2  0
  4  1  1  0
  5  6  1  0
  8 24  1  0
  6  7  1  0
  7  8  1  0
  8  9  2  0
  9  5  1  0
  7 10  1  0
 10 11  2  0
 11 12  1  0
 12 13  2  0
 13 14  1  0
 14 15  2  0
 15 10  1  0
  9 16  1  0
 16 17  2  0
 29 31  1  0
 31 32  1  0
 31 33  1  0
 31 34  1  0
 16 18  1  0
 18 19  1  0
 18 23  1  0
 24 25  1  0
 25 26  2  0
 26 27  1  0
 27 28  2  0
 28 29  1  0
 29 30  2  0
 30 25  1  0
 19 20  1  0
 20 21  1  0
 21 22  1  0
 22 23  1  0
  1  2  2  0
M  END
>  <ID_NEW>
CPDRE1352

>  <pIC50>
5.045757490560675

$$$$

  SciTegic12180813482D

 33 37  0  0  0  0            999 V2000
   -5.8306    0.5001    0.0000 C   0  0
   -5.8318   -0.3273    0.0000 C   0  0
   -5.1170   -0.7402    0.0000 C   0  0
   -5.1188    0.9128    0.0000 C   0  0
   -4.4034    0.5037    0.0000 C   0  0
   -4.3986   -0.3227    0.0000 C   0  0
   -3.6111   -0.5736    0.0000 N   0  0
   -3.1291    0.0979    0.0000 C   0  0
   -3.6189    0.7636    0.0000 C   0  0
   -3.3516   -1.3567    0.0000 C   0  0
   -3.9031   -1.9683    0.0000 C   0  0
   -3.6442   -2.7508    0.0000 C   0  0
   -2.8354   -2.9182    0.0000 C   0  0
   -2.2861   -2.2970    0.0000 N   0  0
   -2.5480   -1.5169    0.0000 C   0  0
   -3.3686    1.5497    0.0000 C   0  0
   -2.5626    1.7260    0.0000 O   0  0
   -3.9242    2.1596    0.0000 N   0  0
   -3.6718    2.9426    0.0000 C   0  0
   -4.2235    3.5511    0.0000 C   0  0
   -5.0307    3.3789    0.0000 N   0  0
   -5.2832    2.5925    0.0000 C   0  0
   -4.7285    1.9783    0.0000 C   0  0
   -2.3041    0.1028    0.0000 C   0  0
   -1.5917   -0.3083    0.0000 C   0  0
   -1.5942   -1.1319    0.0000 C   0  0
   -0.8827   -1.5428    0.0000 C   0  0
   -0.1695   -1.1313    0.0000 C   0  0
   -0.1724   -0.3046    0.0000 C   0  0
   -0.8845    0.1027    0.0000 C   0  0
   -0.8874    0.9277    0.0000 C   0  0
    0.5405    0.1106    0.0000 F   0  0
   -2.5748   -3.7010    0.0000 O   0  0
  1  2  2  0
  2  3  1  0
  3  6  2  0
  5  4  2  0
  4  1  1  0
  5  6  1  0
  6  7  1  0
  7  8  1  0
  8  9  2  0
  9  5  1  0
  7 10  1  0
 10 11  2  0
 11 12  1  0
 12 13  2  0
 13 14  1  0
 14 15  2  0
 15 10  1  0
  9 16  1  0
 16 17  2  0
 16 18  1  0
 18 19  1  0
 18 23  1  0
 19 20  1  0
 20 21  1  0
 21 22  1  0
 22 23  1  0
  8 24  1  0
 24 25  1  0
 25 26  2  0
 26 27  1  0
 27 28  2  0
 28 29  1  0
 29 30  2  0
 30 25  1  0
 30 31  1  0
 29 32  1  0
 13 33  1  0
M  END
>  <ID_NEW>
CPDRE1353

>  <pIC50>
5.029188389127482

$$$$

  SciTegic12180813512D

 33 37  0  0  0  0            999 V2000
    9.5995   -3.9116    0.0000 C   0  0
    9.8104   -4.7060    0.0000 C   0  0
   10.6023   -4.9191    0.0000 C   0  0
   11.1840   -4.3388    0.0000 C   0  0
   10.9685   -3.5424    0.0000 C   0  0
   10.1770   -3.3330    0.0000 C   0  0
    7.3458   -1.8750    0.0000 N   0  0
    7.5583   -1.0750    0.0000 C   0  0
    6.9750   -0.4942    0.0000 C   0  0
    6.1759   -0.7078    0.0000 N   0  0
    5.9634   -1.5078    0.0000 C   0  0
    6.5500   -2.0942    0.0000 C   0  0
    5.4635   -3.5102    0.0000 C   0  0
    5.4623   -4.3376    0.0000 N   0  0
    6.1771   -4.7504    0.0000 C   0  0
    6.1753   -3.0974    0.0000 C   0  0
    7.6820   -3.2479    0.0000 C   0  0
    6.8907   -3.5066    0.0000 C   0  0
    6.8933   -4.3397    0.0000 C   0  0
    7.6871   -4.5934    0.0000 N   0  0
    8.1724   -3.9161    0.0000 C   0  0
    8.1077   -5.3125    0.0000 C   0  0
    8.9250   -5.2978    0.0000 C   0  0
    7.6943   -6.0177    0.0000 C   0  0
    9.3443   -6.0145    0.0000 C   0  0
    8.1135   -6.7344    0.0000 C   0  0
    8.9409   -6.7370    0.0000 C   0  0
    4.7489   -3.0979    0.0000 O   0  0
    7.9343   -2.4625    0.0000 C   0  0
    8.7407   -2.2883    0.0000 O   0  0
    8.8833   -3.4959    0.0000 O   0  0
    9.9583   -2.5292    0.0000 C   0  0
   11.0083   -5.6292    0.0000 F   0  0
  1  2  2  0
  3  4  2  0
  4  5  1  0
 19 20  1  0
 20 21  1  0
 21 17  2  0
 22 23  1  0
 22 24  2  0
 22 20  1  0
 23 25  2  0
 24 26  1  0
 25 27  1  0
 26 27  2  0
 13 28  1  0
 16 13  2  0
 18 19  2  0
 14 15  2  0
 15 19  1  0
 13 14  1  0
 18 16  1  0
 17 18  1  0
 17 29  1  0
 29 30  2  0
 29  7  1  0
  7  8  1  0
  7 12  1  0
  8  9  1  0
  9 10  1  0
 10 11  1  0
 11 12  1  0
  2  3  1  0
 21 31  1  0
 31  1  1  0
  5  6  2  0
  6 32  1  0
  6  1  1  0
  3 33  1  0
M  END
>  <ID_NEW>
CPDRE1354

>  <pIC50>
5.0

$$$$

  SciTegic12180813522D

 33 37  0  0  0  0            999 V2000
   -5.5224    2.9018    0.0000 C   0  0
   -5.8125    2.1270    0.0000 N   0  0
   -5.2869    1.4905    0.0000 C   0  0
   -4.7113    3.0400    0.0000 C   0  0
   -3.3522    2.3726    0.0000 C   0  0
   -4.1838    2.4067    0.0000 C   0  0
   -4.4724    1.6252    0.0000 C   0  0
   -3.8172    1.1102    0.0000 N   0  0
   -3.1259    1.5754    0.0000 C   0  0
   -3.6742    0.2895    0.0000 C   0  0
   -2.9033    0.0178    0.0000 C   0  0
   -4.3079   -0.2269    0.0000 C   0  0
   -2.7607   -0.8002    0.0000 C   0  0
   -4.1654   -1.0449    0.0000 C   0  0
   -3.3911   -1.3363    0.0000 C   0  0
   -5.5763    0.7179    0.0000 Cl  0  0
   -2.8757    3.0506    0.0000 C   0  0
   -2.0539    2.9773    0.0000 N   0  0
   -3.2230    3.7989    0.0000 O   0  0
   -1.7121    2.2297    0.0000 C   0  0
   -0.8942    2.1548    0.0000 C   0  0
   -0.4161    2.8276    0.0000 N   0  0
   -0.7621    3.5776    0.0000 C   0  0
   -1.5862    3.6548    0.0000 C   0  0
   -2.3042    1.5792    0.0000 C   0  0
   -1.8958    0.8667    0.0000 C   0  0
   -2.3116    0.1573    0.0000 C   0  0
   -1.9040   -0.5548    0.0000 C   0  0
   -1.0819   -0.5578    0.0000 C   0  0
   -0.6692    0.1571    0.0000 C   0  0
   -1.0792    0.8661    0.0000 C   0  0
   -0.6667    1.5806    0.0000 C   0  0
    0.1558    0.1573    0.0000 F   0  0
  4  1  2  0
  6  7  2  0
  2  3  2  0
  3 16  1  0
  3  7  1  0
  5 17  1  0
  1  2  1  0
 17 18  1  0
  6  4  1  0
 17 19  2  0
 18 20  1  0
  5  6  1  0
  7  8  1  0
  8  9  1  0
  9  5  2  0
 18 24  1  0
 20 21  1  0
 21 22  1  0
 22 23  1  0
 23 24  1  0
 10 11  1  0
 10 12  2  0
 10  8  1  0
 11 13  2  0
 12 14  1  0
 13 15  1  0
 14 15  2  0
  9 25  1  0
 25 26  1  0
 26 27  2  0
 27 28  1  0
 28 29  2  0
 29 30  1  0
 30 31  2  0
 31 26  1  0
 31 32  1  0
 30 33  1  0
M  END
>  <ID_NEW>
CPDRE1355

>  <pIC50>
5.0

$$$$

  SciTegic12180813512D

 32 36  0  0  0  0            999 V2000
    4.8044   -3.7924    0.0000 C   0  0
    4.3877   -4.5028    0.0000 C   0  0
    4.7944   -5.2168    0.0000 C   0  0
    5.6178   -5.2216    0.0000 C   0  0
    6.0327   -4.5065    0.0000 C   0  0
    5.6236   -3.7954    0.0000 C   0  0
    2.9269   -4.1711    0.0000 C   0  0
    2.2113   -4.5775    0.0000 C   0  0
    2.2064   -5.3987    0.0000 C   0  0
    2.9165   -5.8143    0.0000 C   0  0
    3.6329   -5.4029    0.0000 C   0  0
    3.6343   -4.5831    0.0000 C   0  0
    4.7250   -1.7042    0.0000 N   0  0
    5.1333   -2.4167    0.0000 C   0  0
    5.9500   -2.4193    0.0000 C   0  0
    6.3645   -1.7111    0.0000 S   0  0
    5.9562   -0.9986    0.0000 C   0  0
    5.1333   -0.9943    0.0000 C   0  0
    2.2609   -2.8661    0.0000 C   0  0
    2.4741   -2.0682    0.0000 C   0  0
    1.8902   -1.4866    0.0000 C   0  0
    1.0930   -1.7018    0.0000 C   0  0
    0.8830   -2.5039    0.0000 C   0  0
    1.4683   -3.0820    0.0000 C   0  0
    2.9333   -3.3500    0.0000 N   0  0
    3.6026   -2.8675    0.0000 C   0  0
    3.3458   -2.0792    0.0000 C   0  0
    4.3958   -3.0792    0.0000 O   0  0
    3.9292   -1.4917    0.0000 C   0  0
    3.9250   -0.6667    0.0000 O   0  0
    7.1583   -1.4917    0.0000 O   0  0
    6.9458   -2.2917    0.0000 O   0  0
 13 18  1  0
 14 15  1  0
 15 16  1  0
 16 17  1  0
 17 18  1  0
  4  5  1  0
  9 10  2  0
 19 20  2  0
  2  3  1  0
 20 21  1  0
 10 11  1  0
 21 22  2  0
  5  6  2  0
 22 23  1  0
 11 12  2  0
 23 24  2  0
 24 19  1  0
 12  7  1  0
 13 14  1  0
 26 27  2  0
  6  1  1  0
 25 26  1  0
 27 20  1  0
 19 25  1  0
 25  7  1  0
  1  2  2  0
 26 28  1  0
 28  1  1  0
  3  4  2  0
 27 29  1  0
  7  8  2  0
 29 30  2  0
 29 13  1  0
 16 31  2  0
  8  9  1  0
 16 32  2  0
M  END
>  <ID_NEW>
CPDRE1356

>  <pIC50>
5.0

$$$$

  SciTegic12180811122D

 31 35  0  0  0  0            999 V2000
    0.2241   -0.6517    0.0000 C   0  0
   -0.2379   -1.2931    0.0000 N   0  0
   -0.2379   -0.0172    0.0000 C   0  0
    1.0138   -0.6517    0.0000 O   0  0
   -0.9793   -1.0483    0.0000 C   0  0
    0.0069   -2.0379    0.0000 C   0  0
   -0.9793   -0.2552    0.0000 C   0  0
    0.0069    0.7241    0.0000 C   0  0
    1.4069    0.0241    0.0000 C   0  0
   -1.6621   -1.4414    0.0000 C   0  0
    0.7759   -2.2034    0.0000 C   0  0
   -0.5103   -2.6241    0.0000 C   0  0
   -1.6621    0.1310    0.0000 C   0  0
   -0.5103    1.3138    0.0000 N   0  0
    0.7759    0.8931    0.0000 O   0  0
    1.0138    0.7034    0.0000 C   0  0
    2.1931    0.0241    0.0000 C   0  0
   -2.3414   -1.0483    0.0000 C   0  0
    1.0207   -2.9517    0.0000 C   0  0
   -0.2759   -3.3724    0.0000 C   0  0
   -2.3414   -0.2552    0.0000 C   0  0
   -0.2759    2.0621    0.0000 C   0  0
    1.4069    1.3828    0.0000 C   0  0
    2.5897    0.7034    0.0000 C   0  0
    0.4966   -3.5379    0.0000 C   0  0
   -0.7966    2.6448    0.0000 C   0  0
    0.4966    2.2207    0.0000 C   0  0
    2.1931    1.3828    0.0000 C   0  0
   -0.5552    3.3897    0.0000 C   0  0
    0.7379    2.9690    0.0000 C   0  0
    0.2069    3.5552    0.0000 N   0  0
  1  2  1  0
  1  3  2  0
  1  4  1  0
  2  5  1  0
  2  6  1  0
  3  7  1  0
  3  8  1  0
  4  9  1  0
  5 10  1  0
  6 11  2  0
  6 12  1  0
  7 13  1  0
  8 14  1  0
  8 15  2  0
  9 16  1  0
  9 17  2  0
 10 18  2  0
 11 19  1  0
 12 20  2  0
 13 21  2  0
 14 22  1  0
 16 23  2  0
 17 24  1  0
 19 25  2  0
 22 26  2  0
 22 27  1  0
 23 28  1  0
 26 29  1  0
 27 30  2  0
 29 31  2  0
  5  7  2  0
 18 21  1  0
 20 25  1  0
 24 28  2  0
 30 31  1  0
M  END
>  <ID_NEW>
CPDRE1357

>  <pIC50>
5.0

$$$$

  SciTegic12180813512D

 30 34  0  0  0  0            999 V2000
    1.8333   -2.1667    0.0000 C   0  0
    2.1791   -2.7708    0.0000 C   0  0
    2.8714   -2.7734    0.0000 C   0  0
    3.2231   -2.1732    0.0000 C   0  0
    2.8773   -1.5691    0.0000 C   0  0
    2.1798   -1.5651    0.0000 C   0  0
   -1.1243   -2.8019    0.0000 C   0  0
   -1.0773   -1.3830    0.0000 N   0  0
   -1.6993   -1.7142    0.0000 C   0  0
   -1.7227   -2.4281    0.0000 C   0  0
   -0.4984   -2.4670    0.0000 C   0  0
   -0.4770   -1.7554    0.0000 C   0  0
    0.2065   -1.5558    0.0000 C   0  0
    0.6075   -2.1441    0.0000 C   0  0
    0.1718   -2.7073    0.0000 N   0  0
    0.3704   -3.3872    0.0000 C   0  0
    0.4455   -0.8890    0.0000 C   0  0
    1.1425   -0.7626    0.0000 N   0  0
   -0.0125   -0.3486    0.0000 O   0  0
   -0.1202   -3.8964    0.0000 C   0  0
    0.0779   -4.5757    0.0000 C   0  0
    0.7667   -4.7443    0.0000 C   0  0
    1.2572   -4.2283    0.0000 C   0  0
    1.0565   -3.5508    0.0000 C   0  0
    1.6010   -1.3078    0.0000 C   0  0
    2.2952   -1.1836    0.0000 C   0  0
    2.4860   -0.4452    0.0000 N   0  0
    2.0807    0.0243    0.0000 C   0  0
    1.3810   -0.0994    0.0000 C   0  0
    1.2166   -2.4958    0.0000 C   0  0
  3  4  1  0
  4  5  1  0
  5  6  1  0
  1  2  1  0
  1  6  1  0
  8 12  1  0
  9 10  1  0
 11 12  2  0
 12 13  1  0
 13 14  2  0
 14 15  1  0
 15 11  1  0
 15 16  1  0
 13 17  1  0
 17 18  1  0
 17 19  2  0
 16 20  2  0
 20 21  1  0
 21 22  2  0
 22 23  1  0
 23 24  2  0
 24 16  1  0
 18 25  1  0
 18 29  1  0
 25 26  1  0
 26 27  1  0
 27 28  1  0
 28 29  1  0
 11  7  1  0
  7 10  2  0
  9  8  2  0
 14 30  1  0
 30  1  1  0
  2  3  1  0
M  END
>  <ID_NEW>
CPDRE1358

>  <pIC50>
5.0

$$$$

  -MTS-   10172316392D 0   0.00000     0.00000     0

 31 35  0  0  0  0  0  0  0  0999 V2000
   -3.7540    2.5580    0.0000 C   0  0  0  0  0  0  0  0  0  0  0  0
   -3.7540    1.7330    0.0000 N   0  0  0  0  0  0  0  0  0  0  0  0
   -2.3300    1.7330    0.0000 C   0  0  0  0  0  0  0  0  0  0  0  0
   -2.3300    2.5580    0.0000 C   0  0  2  0  0  0  0  0  0  0  0  0
   -3.0460    2.9750    0.0000 C   0  0  2  0  0  0  0  0  0  0  0  0
   -3.0480    3.8000    0.0000 N   0  0  0  0  0  0  0  0  0  0  0  0
   -1.6170    2.9790    0.0000 O   0  0  0  0  0  0  0  0  0  0  0  0
   -4.3380    1.1500    0.0000 C   0  0  0  0  0  0  0  0  0  0  0  0
   -5.1340    1.3630    0.0000 O   0  0  0  0  0  0  0  0  0  0  0  0
   -4.1240    0.3530    0.0000 C   0  0  0  0  0  0  0  0  0  0  0  0
   -3.3960   -0.7670    0.0000 N   0  0  0  0  0  0  0  0  0  0  0  0
   -3.3520    0.0560    0.0000 C   0  0  0  0  0  0  0  0  0  0  0  0
   -2.6600    0.5060    0.0000 O   0  0  0  0  0  0  0  0  0  0  0  0
   -1.9250    0.1310    0.0000 C   0  0  0  0  0  0  0  0  0  0  0  0
   -1.8850   -0.6920    0.0000 C   0  0  0  0  0  0  0  0  0  0  0  0
   -1.1510   -1.0660    0.0000 C   0  0  0  0  0  0  0  0  0  0  0  0
   -0.4580   -0.6170    0.0000 C   0  0  0  0  0  0  0  0  0  0  0  0
   -0.5040    0.2110    0.0000 C   0  0  0  0  0  0  0  0  0  0  0  0
   -1.2380    0.5820    0.0000 C   0  0  0  0  0  0  0  0  0  0  0  0
   -4.1930   -0.9810    0.0000 C   0  0  0  0  0  0  0  0  0  0  0  0
   -4.6380   -0.2900    0.0000 C   0  0  0  0  0  0  0  0  0  0  0  0
   -5.4570   -0.3320    0.0000 C   0  0  0  0  0  0  0  0  0  0  0  0
   -5.8310   -1.0630    0.0000 C   0  0  0  0  0  0  0  0  0  0  0  0
   -5.3800   -1.7540    0.0000 C   0  0  0  0  0  0  0  0  0  0  0  0
   -4.5630   -1.7090    0.0000 C   0  0  0  0  0  0  0  0  0  0  0  0
   -2.7540   -1.2870    0.0000 C   0  0  0  0  0  0  0  0  0  0  0  0
   -2.8860   -2.0990    0.0000 C   0  0  0  0  0  0  0  0  0  0  0  0
   -2.2450   -2.6180    0.0000 C   0  0  0  0  0  0  0  0  0  0  0  0
   -1.4740   -2.3220    0.0000 C   0  0  0  0  0  0  0  0  0  0  0  0
   -1.3470   -1.5030    0.0000 C   0  0  0  0  0  0  0  0  0  0  0  0
   -1.9880   -0.9870    0.0000 C   0  0  0  0  0  0  0  0  0  0  0  0
  4  5  1  0  0  0  0
  5  1  1  0  0  0  0
  2  3  1  0  0  0  0
  5  6  1  1  0  0  0
  4  7  1  6  0  0  0
  1  2  1  0  0  0  0
  2  8  1  0  0  0  0
  8  9  2  0  0  0  0
  8 10  1  0  0  0  0
 11 12  1  0  0  0  0
 10 21  1  0  0  0  0
 20 11  1  0  0  0  0
 12 10  2  0  0  0  0
 12 13  1  0  0  0  0
 13 14  1  0  0  0  0
 14 15  2  0  0  0  0
 15 16  1  0  0  0  0
 16 17  2  0  0  0  0
 17 18  1  0  0  0  0
 18 19  2  0  0  0  0
 19 14  1  0  0  0  0
 20 21  2  0  0  0  0
 21 22  1  0  0  0  0
 22 23  2  0  0  0  0
 23 24  1  0  0  0  0
 24 25  2  0  0  0  0
 25 20  1  0  0  0  0
 11 26  1  0  0  0  0
 26 27  2  0  0  0  0
 27 28  1  0  0  0  0
 28 29  2  0  0  0  0
 29 30  1  0  0  0  0
 30 31  2  0  0  0  0
 31 26  1  0  0  0  0
  3  4  1  0  0  0  0
V    4 M1
V    5 M1
M  END
>  <ID_NEW>
CPDRE1359

>  <pIC50>
5.0

$$$$

  SciTegic12180813522D

 32 36  0  0  0  0            999 V2000
    1.2360   -5.1500    0.0000 C   0  0
    1.2349   -5.9774    0.0000 C   0  0
    1.9497   -6.3903    0.0000 C   0  0
    1.9479   -4.7373    0.0000 N   0  0
    3.4532   -6.2328    0.0000 N   0  0
    3.9410   -5.5610    0.0000 C   0  0
    3.4527   -4.8896    0.0000 C   0  0
    2.6633   -5.1464    0.0000 C   0  0
    2.6635   -5.9766    0.0000 C   0  0
    3.7084   -7.0173    0.0000 C   0  0
    3.1541   -7.6290    0.0000 C   0  0
    3.4088   -8.4129    0.0000 C   0  0
    4.2166   -8.5848    0.0000 C   0  0
    4.7693   -7.9666    0.0000 C   0  0
    4.5117   -7.1850    0.0000 C   0  0
    3.7073   -4.1048    0.0000 C   0  0
    4.5142   -3.9330    0.0000 O   0  0
    3.1550   -3.4920    0.0000 N   0  0
    3.4126   -2.7077    0.0000 C   0  0
    2.8642   -2.0962    0.0000 C   0  0
    2.0561   -2.2640    0.0000 N   0  0
    1.7994   -3.0491    0.0000 C   0  0
    2.3507   -3.6663    0.0000 C   0  0
    4.7660   -5.5606    0.0000 C   0  0
    5.4750   -5.9708    0.0000 C   0  0
    5.4714   -6.7910    0.0000 C   0  0
    6.1795   -7.2012    0.0000 C   0  0
    6.8903   -6.7922    0.0000 C   0  0
    6.8884   -5.9689    0.0000 C   0  0
    6.1797   -5.5624    0.0000 C   0  0
    4.7558   -7.2015    0.0000 C   0  0
    6.1779   -4.7374    0.0000 Cl  0  0
  8  4  2  0
 18 23  1  0
 19 20  1  0
 20 21  1  0
 21 22  1  0
 22 23  1  0
  4  1  1  0
  8  9  1  0
  6  7  2  0
  5  6  1  0
  7  8  1  0
  9  5  1  0
  5 10  1  0
  6 24  1  0
 10 11  2  0
 11 12  1  0
 12 13  2  0
 13 14  1  0
 14 15  2  0
 15 10  1  0
 24 25  1  0
  7 16  1  0
 25 26  2  0
 16 17  2  0
 26 27  1  0
 16 18  1  0
 27 28  2  0
 18 19  1  0
 28 29  1  0
  1  2  2  0
 29 30  2  0
 30 25  1  0
  2  3  1  0
 26 31  1  0
  3  9  2  0
 30 32  1  0
M  END
>  <ID_NEW>
CPDRE1360

>  <pIC50>
5.0

$$$$

  SciTegic12180813452D

 30 34  0  0  0  0            999 V2000
    1.9444   -3.5374    0.0000 C   0  0
    1.9432   -4.3648    0.0000 C   0  0
    2.6581   -4.7777    0.0000 C   0  0
    2.6563   -3.1247    0.0000 C   0  0
    3.3676   -3.5375    0.0000 C   0  0
    3.3724   -4.3606    0.0000 C   0  0
    4.1568   -4.6105    0.0000 N   0  0
    4.6368   -3.9417    0.0000 C   0  0
    4.1490   -3.2786    0.0000 C   0  0
    4.4163   -5.3936    0.0000 C   0  0
    4.3993   -2.4925    0.0000 C   0  0
    5.2053   -2.3162    0.0000 N   0  0
    3.8437   -1.8826    0.0000 O   0  0
    5.7595   -2.9293    0.0000 C   0  0
    6.5623   -2.7557    0.0000 C   0  0
    6.8168   -1.9706    0.0000 N   0  0
    6.2620   -1.3587    0.0000 C   0  0
    5.4527   -1.5319    0.0000 C   0  0
    3.8666   -6.0076    0.0000 C   0  0
    4.1255   -6.7902    0.0000 C   0  0
    4.9343   -6.9576    0.0000 C   0  0
    5.4836   -6.3364    0.0000 C   0  0
    5.2217   -5.5563    0.0000 C   0  0
    5.4618   -3.9369    0.0000 O   0  0
    5.8785   -4.6489    0.0000 C   0  0
    5.4664   -5.3608    0.0000 C   0  0
    5.8795   -6.0707    0.0000 C   0  0
    6.7049   -6.0701    0.0000 C   0  0
    7.1154   -5.3534    0.0000 C   0  0
    6.7005   -4.6373    0.0000 C   0  0
  7 10  1  0
  9 11  1  0
 11 12  1  0
 11 13  2  0
 12 14  1  0
 12 18  1  0
 14 15  1  0
 15 16  1  0
 16 17  1  0
 17 18  1  0
 10 19  2  0
 19 20  1  0
 20 21  2  0
 21 22  1  0
 22 23  2  0
 23 10  1  0
  8 24  1  0
 24 25  1  0
 25 26  1  0
 25 30  1  0
 26 27  1  0
 27 28  1  0
 28 29  1  0
 29 30  1  0
  1  2  2  0
  2  3  1  0
  3  6  2  0
  5  4  2  0
  4  1  1  0
  5  6  1  0
  6  7  1  0
  7  8  1  0
  8  9  2  0
  9  5  1  0
M  END
>  <ID_NEW>
CPDRE1361

>  <pIC50>
4.94692155651658

$$$$

  SciTegic12180813452D

 32 37  0  0  0  0            999 V2000
   -2.2138   -1.3938    0.0000 N   0  0
   -1.5069   -0.9731    0.0000 C   0  0
   -2.9310   -0.9800    0.0000 C   0  0
   -2.2103   -2.2179    0.0000 C   0  0
   -1.5103   -0.1489    0.0000 C   0  0
   -0.7103   -1.1834    0.0000 O   0  0
   -2.9345   -0.1558    0.0000 C   0  0
   -3.6483   -1.4007    0.0000 C   0  0
   -2.9241   -2.6317    0.0000 C   0  0
   -1.4931   -2.6213    0.0000 C   0  0
   -0.9310    0.4373    0.0000 C   0  0
   -0.5000   -1.9800    0.0000 C   0  0
   -3.6517    0.2545    0.0000 C   0  0
   -4.3621   -0.9869    0.0000 C   0  0
   -2.9172   -3.4558    0.0000 C   0  0
   -1.4862   -3.4420    0.0000 C   0  0
   -0.1310    0.2304    0.0000 O   0  0
   -1.0828   -2.5593    0.0000 C   0  0
    0.2931   -2.1903    0.0000 C   0  0
   -4.3621   -0.1593    0.0000 C   0  0
   -2.2000   -3.8662    0.0000 C   0  0
   -0.8724   -3.3558    0.0000 C   0  0
    0.5069   -2.9834    0.0000 C   0  0
   -0.0759   -3.5696    0.0000 C   0  0
   -1.1504    1.2326    0.0000 N   0  0
   -0.6392    1.8747    0.0000 C   0  0
   -1.9260    1.5197    0.0000 C   0  0
   -1.8890    2.3439    0.0000 C   0  0
   -1.0970    2.5661    0.0000 C   0  0
   -1.0636    3.3880    0.0000 C   0  0
   -1.8350    3.6738    0.0000 N   0  0
   -2.3450    3.0285    0.0000 C   0  0
  1  2  1  0
  1  3  1  0
  1  4  1  0
  2  5  2  0
  2  6  1  0
  3  7  1  0
  3  8  2  0
  4  9  2  0
  4 10  1  0
  5 11  1  0
  6 12  1  0
  7 13  2  0
  8 14  1  0
  9 15  1  0
 10 16  2  0
 11 17  2  0
 12 18  2  0
 12 19  1  0
 13 20  1  0
 15 21  2  0
 18 22  1  0
 19 23  2  0
 22 24  2  0
  5  7  1  0
 14 20  2  0
 16 21  1  0
 23 24  1  0
 11 25  1  0
 25 26  1  0
 26 29  1  0
 28 27  1  0
 27 25  1  0
 28 29  1  0
 29 30  1  0
 30 31  1  0
 31 32  1  0
 32 28  1  0
M  END
>  <ID_NEW>
CPDRE1362

>  <pIC50>
4.943095148663526

$$$$

  SciTegic12180813452D

 30 34  0  0  0  0            999 V2000
    3.1694   -4.8250    0.0000 C   0  0
    3.1683   -5.6523    0.0000 C   0  0
    3.8831   -6.0652    0.0000 C   0  0
    3.8813   -4.4122    0.0000 C   0  0
    5.3880   -4.5627    0.0000 C   0  0
    4.5967   -4.8213    0.0000 C   0  0
    4.5992   -5.6545    0.0000 C   0  0
    5.3931   -5.9082    0.0000 N   0  0
    5.8784   -5.2309    0.0000 C   0  0
    5.6404   -3.7773    0.0000 C   0  0
    6.4468   -3.6031    0.0000 S   0  0
    5.0864   -3.1660    0.0000 N   0  0
    5.3443   -2.3806    0.0000 C   0  0
    4.7941   -1.7706    0.0000 C   0  0
    3.9865   -1.9407    0.0000 N   0  0
    3.7319   -2.7265    0.0000 C   0  0
    4.2850   -3.3422    0.0000 C   0  0
    5.6525   -6.6914    0.0000 C   0  0
    6.7034   -5.2262    0.0000 O   0  0
    7.5250   -5.2250    0.0000 C   0  0
    7.9350   -5.9383    0.0000 C   0  0
    8.7559   -5.9374    0.0000 C   0  0
    9.1665   -5.2247    0.0000 C   0  0
    8.7502   -4.5114    0.0000 C   0  0
    7.9307   -4.5158    0.0000 C   0  0
    5.1019   -7.3020    0.0000 C   0  0
    5.3608   -8.0846    0.0000 C   0  0
    6.1695   -8.2521    0.0000 C   0  0
    6.7188   -7.6309    0.0000 C   0  0
    6.4571   -6.8508    0.0000 C   0  0
  5 10  1  0
 10 11  2  0
 10 12  1  0
 12 13  1  0
 12 17  1  0
 13 14  1  0
 14 15  1  0
 15 16  1  0
 16 17  1  0
  8 18  1  0
  9 19  1  0
 19 20  1  0
 20 21  2  0
 21 22  1  0
 22 23  2  0
 23 24  1  0
 24 25  2  0
 25 20  1  0
 18 26  2  0
 26 27  1  0
 27 28  2  0
 28 29  1  0
 29 30  2  0
 30 18  1  0
  1  2  2  0
  2  3  1  0
  3  7  2  0
  6  4  2  0
  4  1  1  0
  6  7  1  0
  5  6  1  0
  7  8  1  0
  8  9  1  0
  9  5  2  0
M  END
>  <ID_NEW>
CPDRE1363

>  <pIC50>
4.924453038607469

$$$$

  SciTegic12180813062D

 29 33  0  0  0  0            999 V2000
   -5.7056    0.3708    0.0000 C   0  0
   -5.7068   -0.4565    0.0000 C   0  0
   -4.9919   -0.8694    0.0000 C   0  0
   -4.9937    0.7836    0.0000 C   0  0
   -4.2784    0.3745    0.0000 C   0  0
   -4.2735   -0.4520    0.0000 C   0  0
   -3.4860   -0.7028    0.0000 N   0  0
   -3.0041   -0.0313    0.0000 C   0  0
   -3.4939    0.6344    0.0000 C   0  0
   -3.2265   -1.4859    0.0000 C   0  0
   -2.1791   -0.0264    0.0000 C   0  0
   -3.2435    1.4205    0.0000 C   0  0
   -2.4376    1.5967    0.0000 O   0  0
   -3.7781   -2.0975    0.0000 C   0  0
   -3.5191   -2.8800    0.0000 C   0  0
   -2.7104   -3.0475    0.0000 C   0  0
   -2.1611   -2.4262    0.0000 C   0  0
   -2.4229   -1.6461    0.0000 C   0  0
   -1.7650   -0.7396    0.0000 C   0  0
   -0.9408   -0.7351    0.0000 C   0  0
   -0.5317   -0.0177    0.0000 C   0  0
   -0.9528    0.6967    0.0000 C   0  0
   -1.7757    0.6887    0.0000 C   0  0
   -3.7991    2.0303    0.0000 N   0  0
   -3.5453    2.8176    0.0000 C   0  0
   -4.0970    3.4261    0.0000 C   0  0
   -4.9042    3.2539    0.0000 N   0  0
   -5.1566    2.4675    0.0000 C   0  0
   -4.6020    1.8533    0.0000 C   0  0
 11 19  2  0
 19 20  1  0
 20 21  2  0
 21 22  1  0
 22 23  2  0
 23 11  1  0
 12 24  1  0
 24 25  1  0
 24 29  1  0
 25 26  1  0
 26 27  1  0
 27 28  1  0
 28 29  1  0
  1  2  2  0
  2  3  1  0
  3  6  2  0
  5  4  2  0
  4  1  1  0
  5  6  1  0
  6  7  1  0
  7  8  1  0
  8  9  2  0
  9  5  1  0
  7 10  1  0
  8 11  1  0
  9 12  1  0
 12 13  2  0
 10 14  2  0
 14 15  1  0
 15 16  2  0
 16 17  1  0
 17 18  2  0
 18 10  1  0
M  END
>  <ID_NEW>
CPDRE1364

>  <pIC50>
4.913640169325251

$$$$

  -MTS-   10172316392D 0   0.00000     0.00000     0

 33 37  0  0  1  0  0  0  0  0999 V2000
    2.5440   -5.0750    0.0000 C   0  0  0  0  0  0  0  0  0  0  0  0
    1.8280   -5.4820    0.0000 C   0  0  0  0  0  0  0  0  0  0  0  0
    1.8230   -6.3030    0.0000 C   0  0  0  0  0  0  0  0  0  0  0  0
    2.5330   -6.7180    0.0000 C   0  0  0  0  0  0  0  0  0  0  0  0
    3.2500   -6.3070    0.0000 C   0  0  0  0  0  0  0  0  0  0  0  0
    3.2510   -5.4870    0.0000 C   0  0  0  0  0  0  0  0  0  0  0  0
    4.4210   -4.6970    0.0000 C   0  0  0  0  0  0  0  0  0  0  0  0
    4.0040   -5.4070    0.0000 C   0  0  0  0  0  0  0  0  0  0  0  0
    4.4110   -6.1210    0.0000 C   0  0  0  0  0  0  0  0  0  0  0  0
    5.2340   -6.1260    0.0000 C   0  0  0  0  0  0  0  0  0  0  0  0
    5.6490   -5.4110    0.0000 C   0  0  0  0  0  0  0  0  0  0  0  0
    5.2400   -4.7000    0.0000 C   0  0  0  0  0  0  0  0  0  0  0  0
    3.5420   -1.5710    0.0000 N   0  0  0  0  0  0  0  0  0  0  0  0
    4.2540   -1.1540    0.0000 C   0  0  0  0  0  0  0  0  0  0  0  0
    4.2500   -0.3330    0.0000 C   0  0  1  0  0  0  0  0  0  0  0  0
    3.5340    0.0770    0.0000 N   0  0  0  0  0  0  0  0  0  0  0  0
    2.8220   -0.3400    0.0000 C   0  0  0  0  0  0  0  0  0  0  0  0
    2.8250   -1.1670    0.0000 C   0  0  0  0  0  0  0  0  0  0  0  0
    1.8780   -3.7700    0.0000 C   0  0  0  0  0  0  0  0  0  0  0  0
    2.0910   -2.9720    0.0000 C   0  0  0  0  0  0  0  0  0  0  0  0
    1.5070   -2.3910    0.0000 C   0  0  0  0  0  0  0  0  0  0  0  0
    0.7100   -2.6060    0.0000 C   0  0  0  0  0  0  0  0  0  0  0  0
    0.5000   -3.4080    0.0000 C   0  0  0  0  0  0  0  0  0  0  0  0
    1.0850   -3.9860    0.0000 C   0  0  0  0  0  0  0  0  0  0  0  0
    2.5500   -4.2540    0.0000 N   0  0  0  0  0  0  0  0  0  0  0  0
    3.2190   -3.7720    0.0000 C   0  0  0  0  0  0  0  0  0  0  0  0
    2.9620   -2.9830    0.0000 C   0  0  0  0  0  0  0  0  0  0  0  0
    4.0120   -3.9830    0.0000 O   0  0  0  0  0  0  0  0  0  0  0  0
    3.5460   -2.3960    0.0000 C   0  0  0  0  0  0  0  0  0  0  0  0
    4.3420   -2.6080    0.0000 O   0  0  0  0  0  0  0  0  0  0  0  0
    4.9580    0.0830    0.0000 C   0  0  0  0  0  0  0  0  0  0  0  0
    5.6710   -0.3290    0.0000 C   0  0  0  0  0  0  0  0  0  0  0  0
    6.3830    0.0870    0.0000 C   0  0  0  0  0  0  0  0  0  0  0  0
 15 16  1  0  0  0  0
 16 17  1  0  0  0  0
 17 18  1  0  0  0  0
  4  5  1  0  0  0  0
  9 10  2  0  0  0  0
 19 20  2  0  0  0  0
  2  3  1  0  0  0  0
 20 21  1  0  0  0  0
 10 11  1  0  0  0  0
 21 22  2  0  0  0  0
  5  6  2  0  0  0  0
 22 23  1  0  0  0  0
 11 12  2  0  0  0  0
 23 24  2  0  0  0  0
 24 19  1  0  0  0  0
 12  7  1  0  0  0  0
 13 14  1  0  0  0  0
 26 27  2  0  0  0  0
  6  1  1  0  0  0  0
 25 26  1  0  0  0  0
 27 20  1  0  0  0  0
 19 25  1  0  0  0  0
 25  1  1  0  0  0  0
  1  2  2  0  0  0  0
 26 28  1  0  0  0  0
 28  7  1  0  0  0  0
  3  4  2  0  0  0  0
 27 29  1  0  0  0  0
  7  8  2  0  0  0  0
 29 30  2  0  0  0  0
 29 13  1  0  0  0  0
 15 31  1  1  0  0  0
  8  9  1  0  0  0  0
 31 32  1  0  0  0  0
 13 18  1  0  0  0  0
 32 33  1  0  0  0  0
 14 15  1  0  0  0  0
M  END
>  <ID_NEW>
CPDRE1365

>  <pIC50>
4.910094888560602

$$$$

  -MTS-   10172316392D 0   0.00000     0.00000     0

 33 37  0  0  1  0  0  0  0  0999 V2000
    2.5440   -5.0750    0.0000 C   0  0  0  0  0  0  0  0  0  0  0  0
    1.8280   -5.4820    0.0000 C   0  0  0  0  0  0  0  0  0  0  0  0
    1.8230   -6.3030    0.0000 C   0  0  0  0  0  0  0  0  0  0  0  0
    2.5330   -6.7180    0.0000 C   0  0  0  0  0  0  0  0  0  0  0  0
    3.2500   -6.3070    0.0000 C   0  0  0  0  0  0  0  0  0  0  0  0
    3.2510   -5.4870    0.0000 C   0  0  0  0  0  0  0  0  0  0  0  0
    4.4210   -4.6970    0.0000 C   0  0  0  0  0  0  0  0  0  0  0  0
    4.0040   -5.4070    0.0000 C   0  0  0  0  0  0  0  0  0  0  0  0
    4.4110   -6.1210    0.0000 C   0  0  0  0  0  0  0  0  0  0  0  0
    5.2340   -6.1260    0.0000 C   0  0  0  0  0  0  0  0  0  0  0  0
    5.6490   -5.4110    0.0000 C   0  0  0  0  0  0  0  0  0  0  0  0
    5.2400   -4.7000    0.0000 C   0  0  0  0  0  0  0  0  0  0  0  0
    3.5420   -1.5710    0.0000 N   0  0  0  0  0  0  0  0  0  0  0  0
    4.2540   -1.1540    0.0000 C   0  0  0  0  0  0  0  0  0  0  0  0
    4.2500   -0.3330    0.0000 C   0  0  2  0  0  0  0  0  0  0  0  0
    3.5340    0.0770    0.0000 N   0  0  0  0  0  0  0  0  0  0  0  0
    2.8220   -0.3400    0.0000 C   0  0  0  0  0  0  0  0  0  0  0  0
    2.8250   -1.1670    0.0000 C   0  0  0  0  0  0  0  0  0  0  0  0
    1.8780   -3.7700    0.0000 C   0  0  0  0  0  0  0  0  0  0  0  0
    2.0910   -2.9720    0.0000 C   0  0  0  0  0  0  0  0  0  0  0  0
    1.5070   -2.3910    0.0000 C   0  0  0  0  0  0  0  0  0  0  0  0
    0.7100   -2.6060    0.0000 C   0  0  0  0  0  0  0  0  0  0  0  0
    0.5000   -3.4080    0.0000 C   0  0  0  0  0  0  0  0  0  0  0  0
    1.0850   -3.9860    0.0000 C   0  0  0  0  0  0  0  0  0  0  0  0
    2.5500   -4.2540    0.0000 N   0  0  0  0  0  0  0  0  0  0  0  0
    3.2190   -3.7720    0.0000 C   0  0  0  0  0  0  0  0  0  0  0  0
    2.9620   -2.9830    0.0000 C   0  0  0  0  0  0  0  0  0  0  0  0
    4.0120   -3.9830    0.0000 O   0  0  0  0  0  0  0  0  0  0  0  0
    3.5460   -2.3960    0.0000 C   0  0  0  0  0  0  0  0  0  0  0  0
    4.3420   -2.6080    0.0000 O   0  0  0  0  0  0  0  0  0  0  0  0
    4.9580    0.0830    0.0000 C   0  0  0  0  0  0  0  0  0  0  0  0
    5.6710   -0.3290    0.0000 C   0  0  0  0  0  0  0  0  0  0  0  0
    6.3830    0.0870    0.0000 C   0  0  0  0  0  0  0  0  0  0  0  0
 15 16  1  0  0  0  0
 16 17  1  0  0  0  0
 17 18  1  0  0  0  0
  4  5  1  0  0  0  0
  9 10  2  0  0  0  0
 19 20  2  0  0  0  0
  2  3  1  0  0  0  0
 20 21  1  0  0  0  0
 10 11  1  0  0  0  0
 21 22  2  0  0  0  0
  5  6  2  0  0  0  0
 22 23  1  0  0  0  0
 11 12  2  0  0  0  0
 23 24  2  0  0  0  0
 24 19  1  0  0  0  0
 12  7  1  0  0  0  0
 13 14  1  0  0  0  0
 26 27  2  0  0  0  0
  6  1  1  0  0  0  0
 25 26  1  0  0  0  0
 27 20  1  0  0  0  0
 19 25  1  0  0  0  0
 25  1  1  0  0  0  0
  1  2  2  0  0  0  0
 26 28  1  0  0  0  0
 28  7  1  0  0  0  0
  3  4  2  0  0  0  0
 27 29  1  0  0  0  0
  7  8  2  0  0  0  0
 29 30  2  0  0  0  0
 29 13  1  0  0  0  0
 15 31  1  6  0  0  0
  8  9  1  0  0  0  0
 31 32  1  0  0  0  0
 13 18  1  0  0  0  0
 32 33  1  0  0  0  0
 14 15  1  0  0  0  0
M  END
>  <ID_NEW>
CPDRE1366

>  <pIC50>
4.903089986991943

$$$$

  SciTegic12180813502D

 34 38  0  0  0  0            999 V2000
    1.0944   -1.8000    0.0000 C   0  0
    1.0891   -2.6232    0.0000 C   0  0
    1.7982   -3.0375    0.0000 C   0  0
    2.5132   -2.6299    0.0000 C   0  0
    2.5145   -1.8035    0.0000 C   0  0
    1.8047   -1.3928    0.0000 C   0  0
    0.1417    0.4208    0.0000 N   0  0
    0.8542    0.0083    0.0000 C   0  0
    1.5637    0.4169    0.0000 C   0  0
    1.5670    1.2395    0.0000 N   0  0
    0.8545    1.6520    0.0000 C   0  0
    0.1387    1.2419    0.0000 C   0  0
   -0.4981   -1.3728    0.0000 C   0  0
   -0.9814   -2.8585    0.0000 C   0  0
   -1.6970   -3.2650    0.0000 C   0  0
   -1.7019   -4.0861    0.0000 C   0  0
   -0.9918   -4.5018    0.0000 C   0  0
   -0.2754   -4.0903    0.0000 C   0  0
   -0.2740   -3.2705    0.0000 C   0  0
   -0.9769   -2.0335    0.0000 N   0  0
   -2.4690   -0.5612    0.0000 C   0  0
   -3.1798   -0.9761    0.0000 C   0  0
   -3.1728   -1.8024    0.0000 C   0  0
   -2.4589   -2.2059    0.0000 N   0  0
   -3.9000   -0.5624    0.0000 O   0  0
   -4.6166   -0.9707    0.0000 C   0  0
   -0.9784   -0.7141    0.0000 C   0  0
   -1.7557   -0.9684    0.0000 C   0  0
   -1.7529   -1.7869    0.0000 C   0  0
   -0.5708    0.0042    0.0000 C   0  0
   -0.9875    0.7208    0.0000 O   0  0
    0.2959   -1.5833    0.0000 O   0  0
    1.8000   -0.5667    0.0000 C   0  0
    1.7917   -3.8625    0.0000 F   0  0
  8  9  1  0
  9 10  1  0
 10 11  1  0
 11 12  1  0
  6  1  1  0
 23 24  2  0
 24 29  1  0
 22 25  1  0
 28 21  1  0
 25 26  1  0
 21 22  2  0
 22 23  1  0
 28 29  2  0
  7  8  1  0
  1  2  2  0
  3  4  2  0
 27 28  1  0
 29 20  1  0
 20 13  1  0
 13 27  2  0
 27 30  1  0
  4  5  1  0
 30 31  2  0
 30  7  1  0
  2  3  1  0
 19 14  1  0
 14 15  2  0
 16 17  2  0
 17 18  1  0
 15 16  1  0
 18 19  2  0
  5  6  2  0
 13 32  1  0
 32  1  1  0
 14 20  1  0
  6 33  1  0
  7 12  1  0
  3 34  1  0
M  END
>  <ID_NEW>
CPDRE1367

>  <pIC50>
4.88941028970075

$$$$

  SciTegic12180813092D

 30 34  0  0  0  0            999 V2000
    0.5987   -3.0950    0.0000 C   0  0
    0.6059   -4.2908    0.0000 C   0  0
    1.6459   -4.8790    0.0000 C   0  0
    1.6273   -2.4874    0.0000 C   0  0
    2.6618   -3.0756    0.0000 C   0  0
    2.6754   -4.2713    0.0000 C   0  0
    3.8144   -4.6303    0.0000 N   0  0
    4.5101   -3.6588    0.0000 C   0  0
    3.7966   -2.6949    0.0000 C   0  0
    4.1951   -5.7651    0.0000 C   0  0
    3.4015   -6.6597    0.0000 C   0  0
    3.7821   -7.7945    0.0000 C   0  0
    4.9521   -8.0306    0.0000 C   0  0
    5.7456   -7.1360    0.0000 C   0  0
    5.3651   -6.0012    0.0000 C   0  0
    4.1555   -1.5559    0.0000 C   0  0
    3.3459   -0.6754    0.0000 O   0  0
    5.3240   -1.2974    0.0000 N   0  0
    5.6828   -0.1542    0.0000 C   0  0
    6.8472    0.1044    0.0000 C   0  0
    7.6567   -0.7762    0.0000 N   0  0
    7.2979   -1.9194    0.0000 C   0  0
    6.1294   -2.1780    0.0000 C   0  0
    6.4594   -4.3460    0.0000 C   0  0
    7.6342   -4.1304    0.0000 C   0  0
    6.0634   -5.4769    0.0000 C   0  0
    5.6848   -3.4390    0.0000 O   0  0
    8.4130   -5.0374    0.0000 C   0  0
    6.8380   -6.3837    0.0000 N   0  0
    8.0128   -6.1640    0.0000 C   0  0
 19 20  1  0
 20 21  1  0
 21 22  1  0
 22 23  1  0
  1  2  2  0
  2  3  1  0
  3  6  2  0
  5  4  2  0
  4  1  1  0
 24 25  2  0
 24 26  1  0
 24 27  1  0
 25 28  1  0
 26 29  2  0
 28 30  2  0
 29 30  1  0
  8 27  1  0
  5  6  1  0
  6  7  1  0
  7  8  1  0
  8  9  2  0
  9  5  1  0
  7 10  1  0
 10 11  2  0
 11 12  1  0
 12 13  2  0
 13 14  1  0
 14 15  2  0
 15 10  1  0
  9 16  1  0
 16 17  2  0
 16 18  1  0
 18 19  1  0
 18 23  1  0
M  END
>  <ID_NEW>
CPDRE1368

>  <pIC50>
4.866461091629782

$$$$

  SciTegic12180813512D

 33 37  0  0  0  0            999 V2000
    5.5375   -1.8958    0.0000 N   0  0
    5.5333   -1.0708    0.0000 C   0  0
    4.8207   -0.6642    0.0000 C   0  0
    4.1077   -1.0780    0.0000 N   0  0
    4.1119   -1.9030    0.0000 C   0  0
    4.8290   -2.3142    0.0000 C   0  0
    4.8337   -4.4370    0.0000 N   0  0
    5.5009   -3.9923    0.0000 C   0  0
    4.1125   -4.0739    0.0000 C   0  0
    4.8807   -5.2473    0.0000 C   0  0
    5.4584   -3.1858    0.0000 C   0  0
    6.2949   -4.1562    0.0000 O   0  0
    4.0657   -3.2676    0.0000 C   0  0
    3.4307   -4.5193    0.0000 C   0  0
    4.2062   -5.6895    0.0000 C   0  0
    5.6013   -5.6041    0.0000 C   0  0
    5.9935   -2.5786    0.0000 C   0  0
    6.5425   -4.9240    0.0000 C   0  0
    3.3403   -2.8999    0.0000 C   0  0
    2.7129   -4.1560    0.0000 C   0  0
    4.2564   -6.4955    0.0000 C   0  0
    5.6513   -6.4067    0.0000 C   0  0
    6.7906   -2.7388    0.0000 O   0  0
    6.0035   -5.5205    0.0000 C   0  0
    7.3292   -5.0881    0.0000 C   0  0
    2.6695   -3.3462    0.0000 C   0  0
    4.9777   -6.8594    0.0000 C   0  0
    6.2472   -6.2883    0.0000 C   0  0
    7.5801   -5.8523    0.0000 C   0  0
    7.0374   -6.4599    0.0000 C   0  0
    5.2250    0.0542    0.0000 C   0  0
    6.0208    0.2708    0.0000 O   0  0
    5.0083    0.8542    0.0000 O   0  0
 11 17  1  0
 12 18  1  0
 13 19  2  0
 14 20  1  0
 15 21  1  0
 16 22  2  0
 17 23  2  0
 18 24  2  0
 18 25  1  0
 19 26  1  0
 21 27  2  0
 24 28  1  0
 25 29  2  0
 28 30  2  0
 11 13  1  0
 20 26  2  0
 22 27  1  0
 29 30  1  0
 17  1  1  0
  7  8  1  0
  7  9  1  0
  7 10  1  0
  8 11  2  0
  8 12  1  0
  1  2  1  0
  1  6  1  0
  2  3  1  0
  3  4  1  0
  4  5  1  0
  3 31  1  0
  5  6  1  0
 31 32  1  0
  9 13  1  0
 31 33  2  0
  9 14  2  0
 10 15  2  0
 10 16  1  0
M  END
>  <ID_NEW>
CPDRE1369

>  <pIC50>
4.844663962534939

$$$$

  SciTegic12180813082D

 31 35  0  0  0  0            999 V2000
   -5.7056   -1.3958    0.0000 C   0  0
   -5.7068   -2.2232    0.0000 C   0  0
   -4.9920   -2.6361    0.0000 C   0  0
   -4.9938   -0.9831    0.0000 C   0  0
   -4.2784   -1.3922    0.0000 C   0  0
   -4.2736   -2.2186    0.0000 C   0  0
   -3.4861   -2.4695    0.0000 N   0  0
   -3.0041   -1.7980    0.0000 C   0  0
   -3.4939   -1.1323    0.0000 C   0  0
   -3.2266   -3.2526    0.0000 C   0  0
   -3.7781   -3.8642    0.0000 C   0  0
   -3.5192   -4.6467    0.0000 C   0  0
   -2.7104   -4.8141    0.0000 C   0  0
   -2.1611   -4.1929    0.0000 C   0  0
   -2.4230   -3.4128    0.0000 C   0  0
   -3.2436   -0.3462    0.0000 C   0  0
   -2.4376   -0.1699    0.0000 O   0  0
   -3.7992    0.2637    0.0000 N   0  0
   -3.5468    1.0467    0.0000 C   0  0
   -4.0985    1.6552    0.0000 C   0  0
   -4.9057    1.4830    0.0000 N   0  0
   -5.1582    0.6966    0.0000 C   0  0
   -4.6035    0.0824    0.0000 C   0  0
   -2.1791   -1.7931    0.0000 O   0  0
   -1.7624   -2.5052    0.0000 C   0  0
   -2.1733   -3.2207    0.0000 C   0  0
   -1.7573   -3.9323    0.0000 C   0  0
   -0.9314   -3.9279    0.0000 C   0  0
   -0.5233   -3.2060    0.0000 C   0  0
   -0.9417   -2.4974    0.0000 C   0  0
   -0.5138   -4.6393    0.0000 C   0  0
 18 19  1  0
 18 23  1  0
 19 20  1  0
 20 21  1  0
 21 22  1  0
 22 23  1  0
  8 24  1  0
 24 25  1  0
 25 26  2  0
 26 27  1  0
 27 28  2  0
 28 29  1  0
 29 30  2  0
 30 25  1  0
 28 31  1  0
  1  2  2  0
  2  3  1  0
  3  6  2  0
  5  4  2  0
  4  1  1  0
  5  6  1  0
  6  7  1  0
  7  8  1  0
  8  9  2  0
  9  5  1  0
  7 10  1  0
 10 11  2  0
 11 12  1  0
 12 13  2  0
 13 14  1  0
 14 15  2  0
 15 10  1  0
  9 16  1  0
 16 17  2  0
 16 18  1  0
M  END
>  <ID_NEW>
CPDRE1370

>  <pIC50>
4.822463500070137

$$$$

  SciTegic12180813072D

 32 36  0  0  0  0            999 V2000
   -5.6338    0.7738    0.0000 C   0  0
   -5.7053   -0.0521    0.0000 C   0  0
   -5.0168   -0.5149    0.0000 C   0  0
   -4.8824    1.1338    0.0000 C   0  0
   -4.2026    0.6634    0.0000 C   0  0
   -4.2657   -0.1637    0.0000 C   0  0
   -3.5059   -0.4819    0.0000 N   0  0
   -2.9613    0.1485    0.0000 C   0  0
   -3.3937    0.8572    0.0000 C   0  0
   -3.3034   -1.2873    0.0000 C   0  0
   -3.9118   -1.8602    0.0000 C   0  0
   -3.7180   -2.6693    0.0000 C   0  0
   -2.9237   -2.9009    0.0000 C   0  0
   -2.3195   -2.3319    0.0000 C   0  0
   -2.5135   -1.5227    0.0000 C   0  0
   -3.0747    1.6213    0.0000 C   0  0
   -2.2563    1.7293    0.0000 O   0  0
   -3.5869    2.2825    0.0000 N   0  0
   -3.2640    3.0464    0.0000 C   0  0
   -3.7719    3.7071    0.0000 C   0  0
   -4.5946    3.5994    0.0000 N   0  0
   -4.9092    2.8350    0.0000 C   0  0
   -4.4058    2.1702    0.0000 C   0  0
   -2.1590   -0.0570    0.0000 O   0  0
   -1.3619    0.1657    0.0000 C   0  0
   -0.7764   -0.4213    0.0000 C   0  0
    0.0211   -0.2089    0.0000 C   0  0
    0.2344    0.5900    0.0000 C   0  0
   -0.3561    1.1765    0.0000 C   0  0
   -1.1515    0.9610    0.0000 C   0  0
   -0.1458    1.9792    0.0000 C   0  0
    0.0667    2.7792    0.0000 N   0  0
  2  3  1  0
  3  6  2  0
  5  4  2  0
  4  1  1  0
  5  6  1  0
  8 24  1  0
  6  7  1  0
  7  8  1  0
  8  9  2  0
  9  5  1  0
  7 10  1  0
 10 11  2  0
 11 12  1  0
 12 13  2  0
 13 14  1  0
 14 15  2  0
 15 10  1  0
  9 16  1  0
 16 17  2  0
 29 31  1  0
 31 32  3  0
 16 18  1  0
 18 19  1  0
 18 23  1  0
 24 25  1  0
 25 26  2  0
 26 27  1  0
 27 28  2  0
 28 29  1  0
 29 30  2  0
 30 25  1  0
 19 20  1  0
 20 21  1  0
 21 22  1  0
 22 23  1  0
  1  2  2  0
M  END
>  <ID_NEW>
CPDRE1371

>  <pIC50>
4.789146634685106

$$$$

  SciTegic12180813072D

 31 35  0  0  0  0            999 V2000
   -5.7056    0.3751    0.0000 C   0  0
   -5.7068   -0.4523    0.0000 C   0  0
   -4.9920   -0.8652    0.0000 C   0  0
   -4.9938    0.7878    0.0000 C   0  0
   -4.2784    0.3787    0.0000 C   0  0
   -4.2736   -0.4477    0.0000 C   0  0
   -3.4861   -0.6986    0.0000 N   0  0
   -3.0041   -0.0271    0.0000 C   0  0
   -3.4939    0.6386    0.0000 C   0  0
   -3.2266   -1.4817    0.0000 C   0  0
   -3.7781   -2.0933    0.0000 C   0  0
   -3.5192   -2.8758    0.0000 C   0  0
   -2.7104   -3.0432    0.0000 C   0  0
   -2.1611   -2.4220    0.0000 C   0  0
   -2.4230   -1.6419    0.0000 C   0  0
   -3.2436    1.4247    0.0000 C   0  0
   -2.4376    1.6010    0.0000 O   0  0
   -3.7992    2.0346    0.0000 N   0  0
   -3.5468    2.8176    0.0000 C   0  0
   -4.0985    3.4261    0.0000 C   0  0
   -4.9057    3.2539    0.0000 N   0  0
   -5.1582    2.4675    0.0000 C   0  0
   -4.6035    1.8533    0.0000 C   0  0
   -2.1791   -0.0222    0.0000 C   0  0
   -1.7624   -0.7343    0.0000 C   0  0
   -2.1733   -1.4498    0.0000 C   0  0
   -1.7573   -2.1614    0.0000 C   0  0
   -0.9314   -2.1570    0.0000 C   0  0
   -0.5233   -1.4351    0.0000 C   0  0
   -0.9417   -0.7265    0.0000 C   0  0
   -1.7708    0.6947    0.0000 O   0  0
  2  3  1  0
  3  6  2  0
  5  4  2  0
  4  1  1  0
  5  6  1  0
  6  7  1  0
  7  8  1  0
  8  9  2  0
  9  5  1  0
  7 10  1  0
 10 11  2  0
 11 12  1  0
 12 13  2  0
 13 14  1  0
 24 31  2  0
 14 15  2  0
 15 10  1  0
  9 16  1  0
 16 17  2  0
 16 18  1  0
 18 19  1  0
 18 23  1  0
 19 20  1  0
 20 21  1  0
 21 22  1  0
 22 23  1  0
  8 24  1  0
 24 25  1  0
 25 26  2  0
 26 27  1  0
 27 28  2  0
 28 29  1  0
 29 30  2  0
 30 25  1  0
  1  2  2  0
M  END
>  <ID_NEW>
CPDRE1372

>  <pIC50>
4.760700520873107

$$$$

  SciTegic12180813072D

 32 36  0  0  0  0            999 V2000
   -5.6338    0.7738    0.0000 C   0  0
   -5.7053   -0.0521    0.0000 C   0  0
   -5.0168   -0.5149    0.0000 C   0  0
   -4.8824    1.1338    0.0000 C   0  0
   -4.2026    0.6634    0.0000 C   0  0
   -4.2657   -0.1637    0.0000 C   0  0
   -3.5059   -0.4819    0.0000 N   0  0
   -2.9613    0.1485    0.0000 C   0  0
   -3.3937    0.8572    0.0000 C   0  0
   -3.3034   -1.2873    0.0000 C   0  0
   -3.9118   -1.8602    0.0000 C   0  0
   -3.7180   -2.6693    0.0000 C   0  0
   -2.9237   -2.9009    0.0000 C   0  0
   -2.3195   -2.3319    0.0000 C   0  0
   -2.5135   -1.5227    0.0000 C   0  0
   -3.0747    1.6213    0.0000 C   0  0
   -2.2563    1.7293    0.0000 O   0  0
   -3.5869    2.2825    0.0000 N   0  0
   -3.2640    3.0464    0.0000 C   0  0
   -3.7719    3.7071    0.0000 C   0  0
   -4.5946    3.5994    0.0000 N   0  0
   -4.9092    2.8350    0.0000 C   0  0
   -4.4058    2.1702    0.0000 C   0  0
   -2.1590   -0.0570    0.0000 O   0  0
   -1.3619    0.1657    0.0000 C   0  0
   -0.7764   -0.4213    0.0000 C   0  0
    0.0211   -0.2089    0.0000 C   0  0
    0.2344    0.5900    0.0000 C   0  0
   -0.3561    1.1765    0.0000 C   0  0
   -1.1515    0.9610    0.0000 C   0  0
   -0.1458    1.9792    0.0000 O   0  0
   -0.3625    2.7792    0.0000 C   0  0
  9  5  1  0
  7 10  1  0
 10 11  2  0
 11 12  1  0
 12 13  2  0
 13 14  1  0
 14 15  2  0
 15 10  1  0
  9 16  1  0
 16 17  2  0
 16 18  1  0
 18 19  1  0
 18 23  1  0
 24 25  1  0
 25 26  2  0
 26 27  1  0
 27 28  2  0
 28 29  1  0
 29 30  2  0
 29 31  1  0
 31 32  1  0
 30 25  1  0
 19 20  1  0
 20 21  1  0
 21 22  1  0
 22 23  1  0
  1  2  2  0
  2  3  1  0
  3  6  2  0
  5  4  2  0
  4  1  1  0
  5  6  1  0
  8 24  1  0
  6  7  1  0
  7  8  1  0
  8  9  2  0
M  END
>  <ID_NEW>
CPDRE1373

>  <pIC50>
4.698970004336019

$$$$

  SciTegic12180813512D

 32 36  0  0  0  0            999 V2000
    4.7250   -1.7042    0.0000 N   0  0
    5.1333   -2.4167    0.0000 C   0  0
    5.9500   -2.4193    0.0000 C   0  0
    6.3645   -1.7111    0.0000 N   0  0
    5.9562   -0.9986    0.0000 C   0  0
    5.1333   -0.9943    0.0000 C   0  0
    4.8044   -3.7924    0.0000 C   0  0
    4.3877   -4.5028    0.0000 C   0  0
    4.7944   -5.2168    0.0000 C   0  0
    5.6178   -5.2216    0.0000 C   0  0
    6.0327   -4.5065    0.0000 C   0  0
    5.6236   -3.7954    0.0000 C   0  0
    2.9269   -4.1711    0.0000 C   0  0
    2.2113   -4.5775    0.0000 C   0  0
    2.2064   -5.3987    0.0000 C   0  0
    2.9165   -5.8143    0.0000 C   0  0
    3.6329   -5.4029    0.0000 C   0  0
    3.6343   -4.5831    0.0000 C   0  0
    2.2609   -2.8661    0.0000 C   0  0
    2.4741   -2.0682    0.0000 C   0  0
    1.8902   -1.4866    0.0000 C   0  0
    1.0930   -1.7018    0.0000 C   0  0
    0.8830   -2.5039    0.0000 C   0  0
    1.4683   -3.0820    0.0000 C   0  0
    2.9333   -3.3500    0.0000 N   0  0
    3.6026   -2.8675    0.0000 C   0  0
    3.3458   -2.0792    0.0000 C   0  0
    4.3958   -3.0792    0.0000 O   0  0
    3.9292   -1.4917    0.0000 C   0  0
    3.9250   -0.6667    0.0000 O   0  0
    4.4167   -0.5792    0.0000 C   0  0
    5.5417   -0.2750    0.0000 C   0  0
 27 20  1  0
 19 25  1  0
 25 13  1  0
  7  8  2  0
 26 28  1  0
 28  7  1  0
  9 10  2  0
 27 29  1  0
 13 14  2  0
 29 30  2  0
 14 15  1  0
 29  1  1  0
  6 31  1  0
  6 32  1  0
  1  2  1  0
  1  6  1  0
  2  3  1  0
  3  4  1  0
  4  5  1  0
  5  6  1  0
 10 11  1  0
 15 16  2  0
 19 20  2  0
  8  9  1  0
 20 21  1  0
 16 17  1  0
 21 22  2  0
 11 12  2  0
 22 23  1  0
 17 18  2  0
 23 24  2  0
 24 19  1  0
 18 13  1  0
 26 27  2  0
 12  7  1  0
 25 26  1  0
M  END
>  <ID_NEW>
CPDRE1374

>  <pIC50>
4.681936665037238

$$$$

  SciTegic12180813082D

 33 37  0  0  0  0            999 V2000
   -5.7056   -1.3958    0.0000 C   0  0
   -5.7068   -2.2232    0.0000 C   0  0
   -4.9920   -2.6361    0.0000 C   0  0
   -4.9938   -0.9831    0.0000 C   0  0
   -4.2784   -1.3922    0.0000 C   0  0
   -4.2736   -2.2186    0.0000 C   0  0
   -3.4861   -2.4695    0.0000 N   0  0
   -3.0041   -1.7980    0.0000 C   0  0
   -3.4939   -1.1323    0.0000 C   0  0
   -3.2266   -3.2526    0.0000 C   0  0
   -3.7781   -3.8642    0.0000 C   0  0
   -3.5192   -4.6467    0.0000 C   0  0
   -2.7104   -4.8141    0.0000 C   0  0
   -2.1611   -4.1929    0.0000 C   0  0
   -2.4230   -3.4128    0.0000 C   0  0
   -3.2436   -0.3462    0.0000 C   0  0
   -2.4376   -0.1699    0.0000 O   0  0
   -3.7992    0.2637    0.0000 N   0  0
   -3.5468    1.0467    0.0000 C   0  0
   -4.0985    1.6552    0.0000 C   0  0
   -4.9057    1.4830    0.0000 N   0  0
   -5.1582    0.6966    0.0000 C   0  0
   -4.6035    0.0824    0.0000 C   0  0
   -2.1791   -1.7931    0.0000 O   0  0
   -1.7624   -2.5052    0.0000 C   0  0
   -2.1733   -3.2207    0.0000 C   0  0
   -1.7573   -3.9323    0.0000 C   0  0
   -0.9314   -3.9279    0.0000 C   0  0
   -0.5233   -3.2060    0.0000 C   0  0
   -0.9417   -2.4974    0.0000 C   0  0
   -0.5138   -4.6393    0.0000 C   0  0
   -0.9211   -5.3567    0.0000 C   0  0
    0.3112   -4.6333    0.0000 C   0  0
 14 15  2  0
 15 10  1  0
  9 16  1  0
 16 17  2  0
 16 18  1  0
 18 19  1  0
 18 23  1  0
 19 20  1  0
 20 21  1  0
 21 22  1  0
 22 23  1  0
  8 24  1  0
 24 25  1  0
 25 26  2  0
 26 27  1  0
 31 32  1  0
 31 33  1  0
 27 28  2  0
 28 29  1  0
 29 30  2  0
 30 25  1  0
 28 31  1  0
  1  2  2  0
  2  3  1  0
  3  6  2  0
  5  4  2  0
  4  1  1  0
  5  6  1  0
  6  7  1  0
  7  8  1  0
  8  9  2  0
  9  5  1  0
  7 10  1  0
 10 11  2  0
 11 12  1  0
 12 13  2  0
 13 14  1  0
M  END
>  <ID_NEW>
CPDRE1375

>  <pIC50>
4.669586226650809

$$$$

  SciTegic12180813082D

 36 41  0  0  0  0            999 V2000
   -2.7533   -2.6347    0.0000 C   0  0
   -2.7397   -4.1347    0.0000 C   0  0
   -1.4339   -4.8729    0.0000 C   0  0
   -1.4611   -1.8730    0.0000 C   0  0
   -0.1553   -2.6112    0.0000 C   0  0
   -0.1417   -4.1111    0.0000 C   0  0
    1.2890   -4.5617    0.0000 N   0  0
    2.1596   -3.3402    0.0000 C   0  0
    1.2670   -2.1347    0.0000 C   0  0
    1.7655   -5.9840    0.0000 C   0  0
    0.7719   -7.1078    0.0000 C   0  0
    1.2484   -8.5301    0.0000 C   0  0
    2.7184   -8.8286    0.0000 C   0  0
    3.7119   -7.7048    0.0000 C   0  0
    3.2355   -6.2825    0.0000 C   0  0
    1.7175   -0.7040    0.0000 C   0  0
    3.1819   -0.3788    0.0000 O   0  0
    0.7038    0.4016    0.0000 N   0  0
    1.1543    1.8323    0.0000 C   0  0
    0.1406    2.9379    0.0000 C   0  0
   -1.3238    2.6127    0.0000 N   0  0
   -1.7743    1.1820    0.0000 C   0  0
   -0.7606    0.0764    0.0000 C   0  0
    6.5003   -0.1139    0.0000 C   0  0
    7.4540    1.0438    0.0000 C   0  0
    5.0208    0.1331    0.0000 C   0  0
    7.0261   -1.5188    0.0000 C   0  0
    8.9335    0.7968    0.0000 C   0  0
    6.9282    2.4487    0.0000 C   0  0
    4.0671   -1.0247    0.0000 C   0  0
    6.0724   -2.6765    0.0000 C   0  0
    9.8872    1.9546    0.0000 C   0  0
    7.8819    3.6064    0.0000 C   0  0
    4.5929   -2.4295    0.0000 C   0  0
    9.3614    3.3594    0.0000 C   0  0
    3.6392   -3.5872    0.0000 O   0  0
  7 10  1  0
 10 11  2  0
 11 12  1  0
 12 13  2  0
 13 14  1  0
 14 15  2  0
 15 10  1  0
  9 16  1  0
 16 17  2  0
 16 18  1  0
 18 19  1  0
 18 23  1  0
 19 20  1  0
 20 21  1  0
 21 22  1  0
 22 23  1  0
  1  2  2  0
  2  3  1  0
  3  6  2  0
  5  4  2  0
  4  1  1  0
  5  6  1  0
  6  7  1  0
  7  8  1  0
  8  9  2  0
  9  5  1  0
 24 25  1  0
 24 26  2  0
 24 27  1  0
 25 28  2  0
 25 29  1  0
 26 30  1  0
 27 31  2  0
 28 32  1  0
 29 33  2  0
 30 34  2  0
 32 35  2  0
 34 36  1  0
 31 34  1  0
 33 35  1  0
  8 36  1  0
M  END
>  <ID_NEW>
CPDRE1376

>  <pIC50>
4.665546248849068

$$$$

  SciTegic12180813082D

 33 37  0  0  0  0            999 V2000
   -5.7056    0.3751    0.0000 C   0  0
   -5.7068   -0.4523    0.0000 C   0  0
   -4.9920   -0.8652    0.0000 C   0  0
   -4.9938    0.7878    0.0000 C   0  0
   -4.2784    0.3787    0.0000 C   0  0
   -4.2736   -0.4477    0.0000 C   0  0
   -3.4861   -0.6986    0.0000 N   0  0
   -3.0041   -0.0271    0.0000 C   0  0
   -3.4939    0.6386    0.0000 C   0  0
   -3.2266   -1.4817    0.0000 C   0  0
   -3.7781   -2.0933    0.0000 C   0  0
   -3.5192   -2.8758    0.0000 C   0  0
   -2.7104   -3.0432    0.0000 C   0  0
   -2.1611   -2.4220    0.0000 C   0  0
   -2.4230   -1.6419    0.0000 C   0  0
   -3.2436    1.4247    0.0000 C   0  0
   -2.4376    1.6010    0.0000 O   0  0
   -3.7992    2.0346    0.0000 N   0  0
   -3.5468    2.8176    0.0000 C   0  0
   -4.0985    3.4261    0.0000 C   0  0
   -4.9057    3.2539    0.0000 N   0  0
   -5.1582    2.4675    0.0000 C   0  0
   -4.6035    1.8533    0.0000 C   0  0
   -2.1791   -0.0222    0.0000 O   0  0
   -1.7624   -0.7343    0.0000 C   0  0
   -2.1733   -1.4498    0.0000 C   0  0
   -1.7573   -2.1614    0.0000 C   0  0
   -0.9314   -2.1570    0.0000 C   0  0
   -0.5233   -1.4351    0.0000 C   0  0
   -0.9417   -0.7265    0.0000 C   0  0
    0.3017   -1.4273    0.0000 O   0  0
    0.7209   -2.1379    0.0000 C   0  0
    1.5458   -2.1301    0.0000 C   0  0
 18 19  1  0
 18 23  1  0
 19 20  1  0
 20 21  1  0
 21 22  1  0
 22 23  1  0
  8 24  1  0
 24 25  1  0
 25 26  2  0
 26 27  1  0
 27 28  2  0
 28 29  1  0
 29 30  2  0
 30 25  1  0
 29 31  1  0
 31 32  1  0
 32 33  1  0
  1  2  2  0
  2  3  1  0
  3  6  2  0
  5  4  2  0
  4  1  1  0
  5  6  1  0
  6  7  1  0
  7  8  1  0
  8  9  2  0
  9  5  1  0
  7 10  1  0
 10 11  2  0
 11 12  1  0
 12 13  2  0
 13 14  1  0
 14 15  2  0
 15 10  1  0
  9 16  1  0
 16 17  2  0
 16 18  1  0
M  END
>  <ID_NEW>
CPDRE1377

>  <pIC50>
4.644931793651149

$$$$

  SciTegic12180813082D

 29 33  0  0  0  0            999 V2000
   -3.7763    1.1761    0.0000 N   0  0
   -3.2246    1.6848    0.0000 C   0  0
   -4.4328    1.5521    0.0000 C   0  0
   -3.6973    0.4327    0.0000 C   0  0
   -3.5259    2.3669    0.0000 C   0  0
   -2.4848    1.5327    0.0000 O   0  0
   -4.2764    2.2877    0.0000 C   0  0
   -5.1496    1.3169    0.0000 C   0  0
   -4.3038   -0.0121    0.0000 C   0  0
   -3.0116    0.1321    0.0000 C   0  0
   -3.1542    3.0232    0.0000 C   0  0
   -2.0733    0.9042    0.0000 C   0  0
   -4.8411    2.7884    0.0000 C   0  0
   -5.7060    1.8176    0.0000 C   0  0
   -4.2248   -0.7573    0.0000 C   0  0
   -2.9284   -0.6174    0.0000 C   0  0
   -3.5366    3.6730    0.0000 O   0  0
   -2.4100    0.2318    0.0000 C   0  0
   -1.3209    0.9468    0.0000 C   0  0
   -5.5539    2.5575    0.0000 C   0  0
   -3.5308   -1.0621    0.0000 C   0  0
   -1.9985   -0.3980    0.0000 C   0  0
   -0.9094    0.3170    0.0000 C   0  0
   -1.2461   -0.3554    0.0000 C   0  0
   -0.5912    3.0367    0.0000 N   0  0
   -1.3379    3.0300    0.0000 C   0  0
   -1.8732    3.5610    0.0000 C   0  0
   -1.8689    2.4989    0.0000 C   0  0
   -2.4083    3.0258    0.0000 N   0  0
  2  5  2  0
  2  6  1  0
  3  7  1  0
  3  8  2  0
  4  9  2  0
  4 10  1  0
  5 11  1  0
 25 26  1  0
 26 27  1  0
 26 28  1  0
 27 29  1  0
 28 29  1  0
 11 29  1  0
  6 12  1  0
  7 13  2  0
  8 14  1  0
  9 15  1  0
 10 16  2  0
 11 17  2  0
 12 18  2  0
 12 19  1  0
 13 20  1  0
 15 21  2  0
 18 22  1  0
 19 23  2  0
 22 24  2  0
  5  7  1  0
 14 20  2  0
 16 21  1  0
 23 24  1  0
  1  2  1  0
  1  3  1  0
  1  4  1  0
M  END
>  <ID_NEW>
CPDRE1378

>  <pIC50>
4.593459819566044

$$$$

  SciTegic12180813082D

 30 34  0  0  0  0            999 V2000
   -5.7056   -0.5291    0.0000 C   0  0
   -5.7068   -1.3565    0.0000 C   0  0
   -4.9919   -1.7694    0.0000 C   0  0
   -4.9937   -0.1164    0.0000 C   0  0
   -4.2784   -0.5255    0.0000 C   0  0
   -4.2735   -1.3565    0.0000 C   0  0
   -3.4816   -1.6087    0.0000 N   0  0
   -2.9970   -0.9335    0.0000 C   0  0
   -3.4895   -0.2641    0.0000 C   0  0
   -2.1720   -0.9286    0.0000 O   0  0
   -1.7553   -1.6407    0.0000 C   0  0
   -2.1640   -2.3549    0.0000 C   0  0
   -1.7480   -3.0665    0.0000 C   0  0
   -0.9221   -3.0621    0.0000 C   0  0
   -0.5140   -2.3401    0.0000 C   0  0
   -0.9324   -1.6316    0.0000 C   0  0
   -3.2221   -2.3916    0.0000 C   0  0
   -3.7723   -3.0078    0.0000 C   0  0
   -3.5133   -3.7903    0.0000 C   0  0
   -2.7046   -3.9578    0.0000 C   0  0
   -2.1553   -3.3365    0.0000 C   0  0
   -2.4172   -2.5564    0.0000 C   0  0
   -3.2392    0.5220    0.0000 C   0  0
   -2.4332    0.6983    0.0000 O   0  0
   -3.7948    1.1318    0.0000 N   0  0
   -3.5445    1.9179    0.0000 C   0  0
   -2.7624    2.1757    0.0000 C   0  0
   -2.7672    3.0007    0.0000 C   0  0
   -3.5534    3.2510    0.0000 N   0  0
   -4.0343    2.5807    0.0000 C   0  0
 11 12  2  0
  2  3  1  0
 12 13  1  0
  3  6  2  0
 13 14  2  0
  1  2  2  0
 14 15  1  0
  5  4  2  0
 15 16  2  0
 16 11  1  0
  6  7  1  0
  7  8  1  0
 17 18  2  0
 25 26  1  0
 26 27  1  0
 27 28  1  0
 28 29  1  0
 29 30  1  0
 30 26  1  0
  8  9  2  0
 18 19  1  0
  9  5  1  0
 19 20  2  0
  4  1  1  0
 20 21  1  0
  8 10  1  0
 21 22  2  0
 22 17  1  0
  7 17  1  0
  5  6  1  0
  9 23  1  0
 10 11  1  0
 23 24  2  0
 23 25  1  0
M  END
>  <ID_NEW>
CPDRE1379

>  <pIC50>
4.560667306169737

$$$$

  SciTegic12180813082D

 31 35  0  0  0  0            999 V2000
   -5.7056   -0.7624    0.0000 C   0  0
   -5.7068   -1.5898    0.0000 C   0  0
   -4.9919   -2.0027    0.0000 C   0  0
   -4.9937   -0.3497    0.0000 C   0  0
   -4.2784   -0.7588    0.0000 C   0  0
   -4.2735   -1.5898    0.0000 C   0  0
   -3.4816   -1.8420    0.0000 N   0  0
   -2.9970   -1.1668    0.0000 C   0  0
   -3.4895   -0.4974    0.0000 C   0  0
   -2.1720   -1.1619    0.0000 O   0  0
   -1.7553   -1.8740    0.0000 C   0  0
   -2.1640   -2.5882    0.0000 C   0  0
   -1.7480   -3.2998    0.0000 C   0  0
   -0.9221   -3.2954    0.0000 C   0  0
   -0.5140   -2.5734    0.0000 C   0  0
   -0.9324   -1.8649    0.0000 C   0  0
   -3.2221   -2.6249    0.0000 C   0  0
   -3.7723   -3.2411    0.0000 C   0  0
   -3.5133   -4.0236    0.0000 C   0  0
   -2.7046   -4.1911    0.0000 C   0  0
   -2.1553   -3.5698    0.0000 C   0  0
   -2.4172   -2.7897    0.0000 C   0  0
   -3.2392    0.2887    0.0000 C   0  0
   -2.4332    0.4650    0.0000 O   0  0
   -3.7948    0.8985    0.0000 N   0  0
   -3.5445    1.6846    0.0000 C   0  0
   -2.7400    1.8571    0.0000 C   0  0
   -2.4889    2.6391    0.0000 C   0  0
   -3.0416    3.2521    0.0000 N   0  0
   -3.8489    3.0776    0.0000 C   0  0
   -4.1035    2.2901    0.0000 C   0  0
  3  6  2  0
 13 14  2  0
  1  2  2  0
 26 31  1  0
 27 28  1  0
 28 29  1  0
 29 30  1  0
 30 31  1  0
 14 15  1  0
  5  4  2  0
 15 16  2  0
 16 11  1  0
  6  7  1  0
  7  8  1  0
 17 18  2  0
  8  9  2  0
 18 19  1  0
  9  5  1  0
 19 20  2  0
  4  1  1  0
 20 21  1  0
  8 10  1  0
 21 22  2  0
 22 17  1  0
  7 17  1  0
  5  6  1  0
  9 23  1  0
 10 11  1  0
 23 24  2  0
 23 25  1  0
 11 12  2  0
 25 26  1  0
 26 27  1  0
  2  3  1  0
 12 13  1  0
M  END
>  <ID_NEW>
CPDRE1380

>  <pIC50>
4.525055664534611

$$$$

  SciTegic12180813082D

 31 35  0  0  0  0            999 V2000
   -3.5596   -1.3438    0.0000 N   0  0
   -2.8527   -0.9231    0.0000 C   0  0
   -4.2768   -0.9300    0.0000 C   0  0
   -3.5561   -2.1679    0.0000 C   0  0
   -2.8561   -0.0989    0.0000 C   0  0
   -2.0561   -1.1334    0.0000 O   0  0
   -4.2803   -0.1058    0.0000 C   0  0
   -4.9941   -1.3507    0.0000 C   0  0
   -4.2699   -2.5817    0.0000 C   0  0
   -2.8389   -2.5713    0.0000 C   0  0
   -2.2768    0.4873    0.0000 C   0  0
   -1.8458   -1.9300    0.0000 C   0  0
   -4.9975    0.3045    0.0000 C   0  0
   -5.7079   -0.9369    0.0000 C   0  0
   -4.2630   -3.4058    0.0000 C   0  0
   -2.8320   -3.3920    0.0000 C   0  0
   -1.4768    0.2804    0.0000 O   0  0
   -2.4906    1.2838    0.0000 N   0  0
   -2.4286   -2.5093    0.0000 C   0  0
   -1.0527   -2.1403    0.0000 C   0  0
   -5.7079   -0.1093    0.0000 C   0  0
   -3.5458   -3.8162    0.0000 C   0  0
   -2.2182   -3.3058    0.0000 C   0  0
   -0.8389   -2.9334    0.0000 C   0  0
   -1.4217   -3.5196    0.0000 C   0  0
   -1.9046    1.8660    0.0000 C   0  0
   -2.1155    2.6595    0.0000 C   0  0
   -2.9114    2.8768    0.0000 C   0  0
   -3.4964    2.2941    0.0000 C   0  0
   -3.2855    1.4941    0.0000 C   0  0
   -3.1223    3.6744    0.0000 N   0  0
 15 22  2  0
 19 23  1  0
 20 24  2  0
 23 25  2  0
  5  7  1  0
 14 21  2  0
 16 22  1  0
 24 25  1  0
 18 26  1  0
 18 30  1  0
 26 27  1  0
 27 28  1  0
 28 29  1  0
 29 30  1  0
 28 31  1  0
  1  2  1  0
  1  3  1  0
  1  4  1  0
  2  5  2  0
  2  6  1  0
  3  7  1  0
  3  8  2  0
  4  9  2  0
  4 10  1  0
  5 11  1  0
  6 12  1  0
  7 13  2  0
  8 14  1  0
  9 15  1  0
 10 16  2  0
 11 17  2  0
 11 18  1  0
 12 19  2  0
 12 20  1  0
 13 21  1  0
M  END
>  <ID_NEW>
CPDRE1381

>  <pIC50>
4.521433504406156

$$$$

  SciTegic12180813082D

 30 34  0  0  0  0            999 V2000
   -5.7056   -2.0458    0.0000 C   0  0
   -5.7068   -2.8732    0.0000 C   0  0
   -4.9920   -3.2861    0.0000 C   0  0
   -4.9938   -1.6331    0.0000 C   0  0
   -4.2784   -2.0422    0.0000 C   0  0
   -4.2736   -2.8686    0.0000 C   0  0
   -3.4861   -3.1195    0.0000 N   0  0
   -3.0041   -2.4480    0.0000 C   0  0
   -3.4939   -1.7823    0.0000 C   0  0
   -3.2266   -3.9026    0.0000 C   0  0
   -3.7781   -4.5142    0.0000 C   0  0
   -3.5192   -5.2967    0.0000 C   0  0
   -2.7104   -5.4641    0.0000 C   0  0
   -2.1611   -4.8429    0.0000 C   0  0
   -2.4230   -4.0628    0.0000 C   0  0
   -3.2436   -0.9962    0.0000 C   0  0
   -2.4376   -0.8199    0.0000 O   0  0
   -3.7992   -0.3863    0.0000 N   0  0
   -3.5468    0.3967    0.0000 C   0  0
   -4.0985    1.0052    0.0000 C   0  0
   -4.9057    0.8330    0.0000 N   0  0
   -5.1582    0.0466    0.0000 C   0  0
   -4.6035   -0.5676    0.0000 C   0  0
   -2.1791   -2.4431    0.0000 N   0  0
   -1.7624   -3.1552    0.0000 C   0  0
   -2.1733   -3.8707    0.0000 C   0  0
   -1.7573   -4.5823    0.0000 C   0  0
   -0.9314   -4.5779    0.0000 C   0  0
   -0.5233   -3.8560    0.0000 C   0  0
   -0.9417   -3.1474    0.0000 C   0  0
 30 25  1  0
  1  2  2  0
  2  3  1  0
  3  6  2  0
  5  4  2  0
  4  1  1  0
  5  6  1  0
  6  7  1  0
  7  8  1  0
  8  9  2  0
  9  5  1  0
  7 10  1  0
 10 11  2  0
 11 12  1  0
 12 13  2  0
 13 14  1  0
 14 15  2  0
 15 10  1  0
  9 16  1  0
 16 17  2  0
 16 18  1  0
 18 19  1  0
 18 23  1  0
 19 20  1  0
 20 21  1  0
 21 22  1  0
 22 23  1  0
  8 24  1  0
 24 25  1  0
 25 26  2  0
 26 27  1  0
 27 28  2  0
 28 29  1  0
 29 30  2  0
M  END
>  <ID_NEW>
CPDRE1382

>  <pIC50>
4.500312917381596

$$$$

  SciTegic12180813092D

 29 33  0  0  0  0            999 V2000
   -5.8306   -0.1791    0.0000 C   0  0
   -5.8318   -1.0065    0.0000 C   0  0
   -5.1169   -1.4194    0.0000 C   0  0
   -5.1187    0.2336    0.0000 C   0  0
   -4.4034   -0.1755    0.0000 C   0  0
   -4.3985   -1.0065    0.0000 C   0  0
   -3.6066   -1.2587    0.0000 N   0  0
   -3.1220   -0.5835    0.0000 C   0  0
   -3.6145    0.0859    0.0000 C   0  0
   -2.2970   -0.5786    0.0000 O   0  0
   -1.8803   -1.2907    0.0000 C   0  0
   -2.2890   -2.0049    0.0000 C   0  0
   -1.8730   -2.7165    0.0000 C   0  0
   -1.0471   -2.7121    0.0000 C   0  0
   -0.6390   -1.9901    0.0000 C   0  0
   -1.0574   -1.2816    0.0000 C   0  0
   -3.3471   -2.0416    0.0000 C   0  0
   -3.8973   -2.6578    0.0000 C   0  0
   -3.6383   -3.4403    0.0000 C   0  0
   -2.8296   -3.6078    0.0000 C   0  0
   -2.2803   -2.9865    0.0000 C   0  0
   -2.5422   -2.2064    0.0000 C   0  0
   -3.3642    0.8720    0.0000 C   0  0
   -2.5582    1.0483    0.0000 O   0  0
   -3.9198    1.4818    0.0000 N   0  0
   -3.6695    2.2679    0.0000 C   0  0
   -2.9388    2.6440    0.0000 C   0  0
   -3.3177    3.3768    0.0000 N   0  0
   -4.0505    2.9980    0.0000 C   0  0
 19 20  2  0
  4  1  1  0
 20 21  1  0
  8 10  1  0
 21 22  2  0
 22 17  1  0
  7 17  1  0
  5  6  1  0
  9 23  1  0
 10 11  1  0
 23 24  2  0
 23 25  1  0
 11 12  2  0
 25 26  1  0
  2  3  1  0
 12 13  1  0
  3  6  2  0
 13 14  2  0
  1  2  2  0
 14 15  1  0
  5  4  2  0
 15 16  2  0
 16 11  1  0
  6  7  1  0
  7  8  1  0
 17 18  2  0
 26 27  1  0
 27 28  1  0
 28 29  1  0
 29 26  1  0
  8  9  2  0
 18 19  1  0
  9  5  1  0
M  END
>  <ID_NEW>
CPDRE1383

>  <pIC50>
4.462810773756355

$$$$

  -MTS-   10172316392D 0   0.00000     0.00000     0

 31 35  0  0  1  0  0  0  0  0999 V2000
   -3.6930   -0.0010    0.0000 N   0  0  0  0  0  0  0  0  0  0  0  0
   -3.2520    0.6090    0.0000 C   0  0  0  0  0  0  0  0  0  0  0  0
   -4.4050    0.2290    0.0000 C   0  0  0  0  0  0  0  0  0  0  0  0
   -3.4580   -0.7120    0.0000 C   0  0  0  0  0  0  0  0  0  0  0  0
   -3.6990    1.2140    0.0000 C   0  0  0  0  0  0  0  0  0  0  0  0
   -2.5000    0.6140    0.0000 O   0  0  0  0  0  0  0  0  0  0  0  0
   -4.4110    0.9790    0.0000 C   0  0  0  0  0  0  0  0  0  0  0  0
   -5.0540   -0.1510    0.0000 C   0  0  0  0  0  0  0  0  0  0  0  0
   -2.7240   -0.8650    0.0000 C   0  0  0  0  0  0  0  0  0  0  0  0
   -3.9530   -1.2710    0.0000 C   0  0  0  0  0  0  0  0  0  0  0  0
   -3.4700    1.9290    0.0000 C   0  0  0  0  0  0  0  0  0  0  0  0
   -2.0160    0.0410    0.0000 C   0  0  0  0  0  0  0  0  0  0  0  0
   -5.0610    1.3490    0.0000 C   0  0  0  0  0  0  0  0  0  0  0  0
   -5.7060    0.2220    0.0000 C   0  0  0  0  0  0  0  0  0  0  0  0
   -2.4890   -1.5770    0.0000 C   0  0  0  0  0  0  0  0  0  0  0  0
   -3.7190   -1.9820    0.0000 C   0  0  0  0  0  0  0  0  0  0  0  0
   -3.9710    2.4860    0.0000 O   0  0  0  0  0  0  0  0  0  0  0  0
   -1.2830    0.1730    0.0000 C   0  0  0  0  0  0  0  0  0  0  0  0
   -2.2750   -0.6670    0.0000 C   0  0  0  0  0  0  0  0  0  0  0  0
   -5.7070    0.9720    0.0000 C   0  0  0  0  0  0  0  0  0  0  0  0
   -2.9880   -2.1380    0.0000 C   0  0  0  0  0  0  0  0  0  0  0  0
   -0.7970   -0.3980    0.0000 C   0  0  0  0  0  0  0  0  0  0  0  0
   -1.7880   -1.2370    0.0000 C   0  0  0  0  0  0  0  0  0  0  0  0
   -1.0480   -1.1050    0.0000 C   0  0  0  0  0  0  0  0  0  0  0  0
   -1.7770    2.9600    0.0000 C   0  0  1  0  0  0  0  0  0  0  0  0
   -1.5480    3.6740    0.0000 N   0  0  0  0  0  0  0  0  0  0  0  0
   -1.2700    2.4070    0.0000 C   0  0  0  0  0  0  0  0  0  0  0  0
   -2.5090    2.8020    0.0000 C   0  0  0  0  0  0  0  0  0  0  0  0
   -1.4990    1.6930    0.0000 C   0  0  0  0  0  0  0  0  0  0  0  0
   -2.7370    2.0880    0.0000 N   0  0  0  0  0  0  0  0  0  0  0  0
   -2.2340    1.5320    0.0000 C   0  0  0  0  0  0  0  0  0  0  0  0
 29 31  1  0  0  0  0
 30 31  1  0  0  0  0
 11 30  1  0  0  0  0
  8 14  1  0  0  0  0
  9 15  1  0  0  0  0
 10 16  2  0  0  0  0
 11 17  2  0  0  0  0
 12 18  2  0  0  0  0
 12 19  1  0  0  0  0
 13 20  1  0  0  0  0
 15 21  2  0  0  0  0
 18 22  1  0  0  0  0
 19 23  2  0  0  0  0
 22 24  2  0  0  0  0
  5  7  1  0  0  0  0
 14 20  2  0  0  0  0
 16 21  1  0  0  0  0
 23 24  1  0  0  0  0
  1  2  1  0  0  0  0
  1  3  1  0  0  0  0
  1  4  1  0  0  0  0
  2  5  2  0  0  0  0
  2  6  1  0  0  0  0
  3  7  1  0  0  0  0
  3  8  2  0  0  0  0
  4  9  2  0  0  0  0
  4 10  1  0  0  0  0
  5 11  1  0  0  0  0
  6 12  1  0  0  0  0
  7 13  2  0  0  0  0
 25 26  1  1  0  0  0
 25 27  1  0  0  0  0
 25 28  1  0  0  0  0
 27 29  1  0  0  0  0
 28 30  1  0  0  0  0
M  END
>  <ID_NEW>
CPDRE1384

>  <pIC50>
4.4089353929735005

$$$$

  -MTS-   10172316392D 0   0.00000     0.00000     0

 34 39  0  0  0  0  0  0  0  0999 V2000
   -3.5600   -0.9600    0.0000 N   0  0  0  0  0  0  0  0  0  0  0  0
   -2.8530   -0.5400    0.0000 C   0  0  0  0  0  0  0  0  0  0  0  0
   -4.2770   -0.5470    0.0000 C   0  0  0  0  0  0  0  0  0  0  0  0
   -3.5560   -1.7850    0.0000 C   0  0  0  0  0  0  0  0  0  0  0  0
   -2.8560    0.2840    0.0000 C   0  0  0  0  0  0  0  0  0  0  0  0
   -2.0560   -0.7500    0.0000 O   0  0  0  0  0  0  0  0  0  0  0  0
   -4.2800    0.2770    0.0000 C   0  0  0  0  0  0  0  0  0  0  0  0
   -4.9940   -0.9670    0.0000 C   0  0  0  0  0  0  0  0  0  0  0  0
   -4.2700   -2.1980    0.0000 C   0  0  0  0  0  0  0  0  0  0  0  0
   -2.8390   -2.1880    0.0000 C   0  0  0  0  0  0  0  0  0  0  0  0
   -2.2770    0.8710    0.0000 C   0  0  0  0  0  0  0  0  0  0  0  0
   -1.8460   -1.5470    0.0000 C   0  0  0  0  0  0  0  0  0  0  0  0
   -4.9970    0.6880    0.0000 C   0  0  0  0  0  0  0  0  0  0  0  0
   -5.7080   -0.5540    0.0000 C   0  0  0  0  0  0  0  0  0  0  0  0
   -4.2630   -3.0220    0.0000 C   0  0  0  0  0  0  0  0  0  0  0  0
   -2.8320   -3.0090    0.0000 C   0  0  0  0  0  0  0  0  0  0  0  0
   -1.4770    0.6640    0.0000 O   0  0  0  0  0  0  0  0  0  0  0  0
   -2.4290   -2.1260    0.0000 C   0  0  0  0  0  0  0  0  0  0  0  0
   -1.0530   -1.7570    0.0000 C   0  0  0  0  0  0  0  0  0  0  0  0
   -5.7080    0.2740    0.0000 C   0  0  0  0  0  0  0  0  0  0  0  0
   -3.5460   -3.4330    0.0000 C   0  0  0  0  0  0  0  0  0  0  0  0
   -2.2180   -2.9220    0.0000 C   0  0  0  0  0  0  0  0  0  0  0  0
   -0.8390   -2.5500    0.0000 C   0  0  0  0  0  0  0  0  0  0  0  0
   -1.4220   -3.1360    0.0000 C   0  0  0  0  0  0  0  0  0  0  0  0
   -2.4960    1.6660    0.0000 N   0  0  0  0  0  0  0  0  0  0  0  0
   -1.9130    2.2490    0.0000 C   0  0  1  0  0  0  0  0  0  0  0  0
   -2.1290    3.0420    0.0000 C   0  0  0  0  0  0  0  0  0  0  0  0
   -2.9270    3.2530    0.0000 N   0  0  0  0  0  0  0  0  0  0  0  0
   -3.5080    2.6670    0.0000 C   0  0  0  0  0  0  0  0  0  0  0  0
   -3.2910    1.8680    0.0000 C   0  0  2  0  0  0  0  0  0  0  0  0
   -3.0790    2.6710    0.0000 C   0  0  0  0  0  0  0  0  0  0  0  0
   -2.5040    2.8370    0.0000 C   0  0  0  0  0  0  0  0  0  0  0  0
   -3.2950    2.8680    0.0000 H   0  0  0  0  0  0  0  0  0  0  0  0
   -2.4160    3.1130    0.0000 H   0  0  0  0  0  0  0  0  0  0  0  0
  6 12  1  0  0  0  0
  7 13  2  0  0  0  0
  8 14  1  0  0  0  0
  9 15  1  0  0  0  0
 10 16  2  0  0  0  0
 11 17  2  0  0  0  0
 12 18  2  0  0  0  0
 12 19  1  0  0  0  0
 13 20  1  0  0  0  0
 15 21  2  0  0  0  0
 18 22  1  0  0  0  0
 19 23  2  0  0  0  0
 22 24  2  0  0  0  0
  5  7  1  0  0  0  0
 14 20  2  0  0  0  0
 16 21  1  0  0  0  0
 23 24  1  0  0  0  0
 11 25  1  0  0  0  0
 25 26  1  0  0  0  0
 25 30  1  0  0  0  0
 26 27  1  0  0  0  0
 27 28  1  0  0  0  0
 28 29  1  0  0  0  0
 29 30  1  0  0  0  0
 30 31  1  0  0  0  0
 26 32  1  0  0  0  0
 31 32  1  0  0  0  0
  1  2  1  0  0  0  0
  1  3  1  0  0  0  0
  1  4  1  0  0  0  0
  2  5  2  0  0  0  0
  2  6  1  0  0  0  0
  3  7  1  0  0  0  0
  3  8  2  0  0  0  0
  4  9  2  0  0  0  0
  4 10  1  0  0  0  0
  5 11  1  0  0  0  0
 30 33  1  1  0  0  0
 26 34  1  1  0  0  0
V   26 M1
V   30 M1
M  END
>  <ID_NEW>
CPDRE1385

>  <pIC50>
4.368556230986828

$$$$

  SciTegic12180813492D

 30 33  0  0  0  0            999 V2000
   -5.8306    0.2500    0.0000 C   0  0
   -5.8318   -0.4107    0.0000 C   0  0
   -5.2585   -0.7402    0.0000 C   0  0
   -5.2603    0.5836    0.0000 C   0  0
   -4.6992    0.2537    0.0000 C   0  0
   -4.6901   -0.4062    0.0000 C   0  0
   -4.0694   -0.6112    0.0000 N   0  0
   -3.6833   -0.0687    0.0000 C   0  0
   -4.0731    0.4636    0.0000 C   0  0
   -3.8640   -1.2359    0.0000 C   0  0
   -3.8727    1.0914    0.0000 C   0  0
   -3.2293    1.2342    0.0000 O   0  0
   -4.2989   -1.7267    0.0000 C   0  0
   -4.0899   -2.3425    0.0000 C   0  0
   -3.4520   -2.4850    0.0000 C   0  0
   -3.0153   -1.9845    0.0000 C   0  0
   -3.2228   -1.3545    0.0000 C   0  0
   -3.0198   -0.0652    0.0000 O   0  0
   -2.4427    0.2647    0.0000 C   0  0
   -1.8762   -0.0792    0.0000 C   0  0
   -1.2953    0.2502    0.0000 C   0  0
   -1.2939    0.9197    0.0000 C   0  0
   -1.8646    1.2629    0.0000 C   0  0
   -2.4395    0.9277    0.0000 C   0  0
   -4.3145    1.5815    0.0000 N   0  0
   -4.1153    2.2180    0.0000 C   0  0
   -4.9599    1.4436    0.0000 C   0  0
   -4.5572    2.7039    0.0000 C   0  0
   -4.3538    3.3404    0.0000 N   0  0
   -4.7957    3.8305    0.0000 C   0  0
  1  2  2  0
  2  3  1  0
  3  6  2  0
  5  4  2  0
  4  1  1  0
  5  6  1  0
  6  7  1  0
  7  8  1  0
  8  9  2  0
  9  5  1  0
  7 10  1  0
  9 11  1  0
 11 12  2  0
 10 13  2  0
 13 14  1  0
 14 15  2  0
 15 16  1  0
 16 17  2  0
 17 10  1  0
  8 18  1  0
 18 19  1  0
 19 20  2  0
 20 21  1  0
 21 22  2  0
 22 23  1  0
 23 24  2  0
 24 19  1  0
 11 25  1  0
 25 26  1  0
 25 27  1  0
 26 28  1  0
 28 29  1  0
 29 30  1  0
M  END
>  <ID_NEW>
CPDRE1386

>  <pIC50>
4.3655227298392685

$$$$

  SciTegic12180813512D

 34 38  0  0  0  0            999 V2000
    5.5375   -1.8958    0.0000 N   0  0
    5.5333   -1.0708    0.0000 C   0  0
    4.8207   -0.6642    0.0000 C   0  0
    4.1077   -1.0780    0.0000 N   0  0
    4.1119   -1.9030    0.0000 C   0  0
    4.8290   -2.3142    0.0000 C   0  0
    4.8337   -4.4370    0.0000 N   0  0
    5.5009   -3.9923    0.0000 C   0  0
    4.1125   -4.0739    0.0000 C   0  0
    4.8807   -5.2473    0.0000 C   0  0
    5.4584   -3.1858    0.0000 C   0  0
    6.2949   -4.1562    0.0000 O   0  0
    4.0657   -3.2676    0.0000 C   0  0
    3.4307   -4.5193    0.0000 C   0  0
    4.2062   -5.6895    0.0000 C   0  0
    5.6013   -5.6041    0.0000 C   0  0
    5.9935   -2.5786    0.0000 C   0  0
    6.5425   -4.9240    0.0000 C   0  0
    3.3403   -2.8999    0.0000 C   0  0
    2.7129   -4.1560    0.0000 C   0  0
    4.2564   -6.4955    0.0000 C   0  0
    5.6513   -6.4067    0.0000 C   0  0
    6.7906   -2.7388    0.0000 O   0  0
    6.0035   -5.5205    0.0000 C   0  0
    7.3292   -5.0881    0.0000 C   0  0
    2.6695   -3.3462    0.0000 C   0  0
    4.9777   -6.8594    0.0000 C   0  0
    6.2472   -6.2883    0.0000 C   0  0
    7.5801   -5.8523    0.0000 C   0  0
    7.0374   -6.4599    0.0000 C   0  0
    5.2250    0.0542    0.0000 C   0  0
    6.0208    0.2708    0.0000 O   0  0
    5.0083    0.8542    0.0000 O   0  0
    6.8166    0.4875    0.0000 C   0  0
 11 17  1  0
 12 18  1  0
 13 19  2  0
 14 20  1  0
 15 21  1  0
 16 22  2  0
 17 23  2  0
 18 24  2  0
 18 25  1  0
 19 26  1  0
 21 27  2  0
 24 28  1  0
 25 29  2  0
 28 30  2  0
 11 13  1  0
 20 26  2  0
 22 27  1  0
 29 30  1  0
 17  1  1  0
  7  8  1  0
  7  9  1  0
  7 10  1  0
  8 11  2  0
  8 12  1  0
  1  2  1  0
  1  6  1  0
  2  3  1  0
  3  4  1  0
  4  5  1  0
  3 31  1  0
  5  6  1  0
 31 32  1  0
  9 13  1  0
 31 33  2  0
  9 14  2  0
 32 34  1  0
 10 15  2  0
 10 16  1  0
M  END
>  <ID_NEW>
CPDRE1387

>  <pIC50>
4.341035157335564

$$$$

  SciTegic12180813512D

 35 39  0  0  0  0            999 V2000
   10.7833   -1.8708    0.0000 N   0  0
   10.7792   -1.0458    0.0000 C   0  0
   10.0666   -0.6392    0.0000 C   0  0
    9.3536   -1.0530    0.0000 C   0  0
    9.3577   -1.8780    0.0000 C   0  0
   10.0749   -2.2892    0.0000 C   0  0
   10.0712   -4.4203    0.0000 N   0  0
   10.7426   -3.9714    0.0000 C   0  0
    9.3459   -4.0530    0.0000 C   0  0
   10.1182   -5.2348    0.0000 C   0  0
   10.7001   -3.1608    0.0000 C   0  0
   11.5408   -4.1353    0.0000 O   0  0
    9.2991   -3.2426    0.0000 C   0  0
    8.6599   -4.5026    0.0000 C   0  0
    9.4396   -5.6770    0.0000 C   0  0
   10.8430   -5.5916    0.0000 C   0  0
   11.2352   -2.5536    0.0000 C   0  0
   11.7884   -4.9073    0.0000 C   0  0
    8.5695   -2.8749    0.0000 C   0  0
    7.9379   -4.1351    0.0000 C   0  0
    9.4898   -6.4871    0.0000 C   0  0
   10.8930   -6.3983    0.0000 C   0  0
   12.0365   -2.7138    0.0000 O   0  0
   11.2452   -5.5080    0.0000 C   0  0
   12.5792   -5.0756    0.0000 C   0  0
    7.8945   -3.3212    0.0000 C   0  0
   10.2152   -6.8552    0.0000 C   0  0
   11.4931   -6.2799    0.0000 C   0  0
   12.8301   -5.8439    0.0000 C   0  0
   12.2874   -6.4515    0.0000 C   0  0
    8.6333   -0.6375    0.0000 C   0  0
    7.9167   -1.0458    0.0000 O   0  0
    8.2167    0.0792    0.0000 O   0  0
    7.5000    0.4917    0.0000 C   0  0
    9.3458   -0.2250    0.0000 N   0  0
  9 13  1  0
  9 14  2  0
 10 15  2  0
 10 16  1  0
 11 17  1  0
 12 18  1  0
 13 19  2  0
 14 20  1  0
 15 21  1  0
 16 22  2  0
 17 23  2  0
 18 24  2  0
 18 25  1  0
 19 26  1  0
 21 27  2  0
 24 28  1  0
 25 29  2  0
 28 30  2  0
 11 13  1  0
 20 26  2  0
 22 27  1  0
 29 30  1  0
 17  1  1  0
  2  3  1  0
  4 31  1  0
  3  4  1  0
 31 32  2  0
  4  5  1  0
 31 33  1  0
  5  6  1  0
 33 34  1  0
  4 35  1  0
  1  2  1  0
  1  6  1  0
  7  8  1  0
  7  9  1  0
  7 10  1  0
  8 11  2  0
  8 12  1  0
M  END
>  <ID_NEW>
CPDRE1388

>  <pIC50>
4.30102999566398

$$$$

  SciTegic12180813512D

 34 38  0  0  0  0            999 V2000
    5.8833   -2.8041    0.0000 N   0  0
    5.8792   -1.9791    0.0000 C   0  0
    5.1666   -1.5725    0.0000 C   0  0
    4.4536   -1.9863    0.0000 C   0  0
    4.4577   -2.8113    0.0000 C   0  0
    5.1749   -3.2225    0.0000 C   0  0
    5.1712   -5.3536    0.0000 N   0  0
    5.8426   -4.9047    0.0000 C   0  0
    4.4459   -4.9863    0.0000 C   0  0
    5.2182   -6.1681    0.0000 C   0  0
    5.8001   -4.0941    0.0000 C   0  0
    6.6408   -5.0686    0.0000 O   0  0
    4.3991   -4.1759    0.0000 C   0  0
    3.7599   -5.4359    0.0000 C   0  0
    4.5396   -6.6103    0.0000 C   0  0
    5.9430   -6.5249    0.0000 C   0  0
    6.3352   -3.4869    0.0000 C   0  0
    6.8884   -5.8406    0.0000 C   0  0
    3.6695   -3.8082    0.0000 C   0  0
    3.0379   -5.0684    0.0000 C   0  0
    4.5898   -7.4204    0.0000 C   0  0
    5.9930   -7.3316    0.0000 C   0  0
    7.1365   -3.6471    0.0000 O   0  0
    6.3452   -6.4413    0.0000 C   0  0
    7.6792   -6.0089    0.0000 C   0  0
    2.9945   -4.2545    0.0000 C   0  0
    5.3152   -7.7885    0.0000 C   0  0
    6.5931   -7.2132    0.0000 C   0  0
    7.9301   -6.7772    0.0000 C   0  0
    7.3874   -7.3848    0.0000 C   0  0
    3.7333   -1.5708    0.0000 C   0  0
    3.0167   -1.9791    0.0000 O   0  0
    3.3167   -0.8541    0.0000 O   0  0
    4.4458   -1.1583    0.0000 N   0  0
  9 13  1  0
  9 14  2  0
 10 15  2  0
 10 16  1  0
 11 17  1  0
 12 18  1  0
 13 19  2  0
 14 20  1  0
 15 21  1  0
 16 22  2  0
 17 23  2  0
 18 24  2  0
 18 25  1  0
 19 26  1  0
 21 27  2  0
 24 28  1  0
 25 29  2  0
 28 30  2  0
 11 13  1  0
 20 26  2  0
 22 27  1  0
 29 30  1  0
 17  1  1  0
  2  3  1  0
  4 31  1  0
  3  4  1  0
 31 32  2  0
  4  5  1  0
 31 33  1  0
  5  6  1  0
  4 34  1  0
  1  2  1  0
  1  6  1  0
  7  8  1  0
  7  9  1  0
  7 10  1  0
  8 11  2  0
  8 12  1  0
M  END
>  <ID_NEW>
CPDRE1389

>  <pIC50>
4.30102999566398

$$$$

  SciTegic12180811072D

 28 31  0  0  0  0            999 V2000
   -0.2655   -0.4000    0.0000 N   0  0
    0.2621    0.3276    0.0000 C   0  0
   -1.1207   -0.1241    0.0000 C   0  0
    0.0138   -1.2552    0.0000 C   0  0
   -0.2655    1.0552    0.0000 C   0  0
    1.1621    0.3276    0.0000 O   0  0
   -1.1207    0.7690    0.0000 C   0  0
   -1.9000   -0.5759    0.0000 C   0  0
   -0.5828   -1.9276    0.0000 C   0  0
    0.8931   -1.4483    0.0000 C   0  0
    0.0138    1.9103    0.0000 C   0  0
    1.6207   -0.4517    0.0000 C   0  0
   -1.9000    1.2241    0.0000 C   0  0
   -2.6793   -0.1241    0.0000 C   0  0
   -0.3069   -2.7862    0.0000 C   0  0
    1.1724   -2.3069    0.0000 C   0  0
   -0.5828    2.5793    0.0000 N   0  0
    0.8931    2.0966    0.0000 O   0  0
    2.5172   -0.4517    0.0000 C   0  0
    1.1621   -1.2310    0.0000 C   0  0
   -2.6793    0.7690    0.0000 C   0  0
    0.5690   -2.9759    0.0000 C   0  0
   -0.3069    3.4379    0.0000 C   0  0
    2.9690   -1.2310    0.0000 C   0  0
    1.6207   -2.0172    0.0000 C   0  0
    0.5690    3.6241    0.0000 N   0  0
   -0.9103    4.1034    0.0000 N   0  0
    2.5172   -2.0172    0.0000 C   0  0
  1  2  1  0
  1  3  1  0
  1  4  1  0
  2  5  2  0
  2  6  1  0
  3  7  2  0
  3  8  1  0
  4  9  1  0
  4 10  2  0
  5 11  1  0
  6 12  1  0
  7 13  1  0
  8 14  2  0
  9 15  2  0
 10 16  1  0
 11 17  1  0
 11 18  2  0
 12 19  2  0
 12 20  1  0
 13 21  2  0
 15 22  1  0
 17 23  1  0
 19 24  1  0
 20 25  2  0
 23 26  1  0
 23 27  2  0
 24 28  2  0
  5  7  1  0
 14 21  1  0
 16 22  2  0
 25 28  1  0
M  END
>  <ID_NEW>
CPDRE1390

>  <pIC50>
4.268814292366

$$$$

  SciTegic12180813082D

 30 34  0  0  0  0            999 V2000
   -4.1590   -0.4048    0.0000 N   0  0
   -3.4575   -0.1467    0.0000 C   0  0
   -4.6209    0.1806    0.0000 C   0  0
   -4.3658   -1.1280    0.0000 C   0  0
   -3.4846    0.6021    0.0000 C   0  0
   -2.8305   -0.5622    0.0000 O   0  0
   -4.2113    0.8078    0.0000 C   0  0
   -5.3740    0.2314    0.0000 C   0  0
   -5.0915   -1.3154    0.0000 C   0  0
   -3.8385   -1.6639    0.0000 C   0  0
   -2.8991    1.0694    0.0000 C   0  0
   -2.1118   -0.3535    0.0000 C   0  0
   -4.5382    1.4775    0.0000 C   0  0
   -5.7050    0.9010    0.0000 C   0  0
   -5.2941   -2.0345    0.0000 C   0  0
   -4.0453   -2.3872    0.0000 C   0  0
   -2.1970    0.7900    0.0000 O   0  0
   -1.5672   -0.8688    0.0000 C   0  0
   -1.9293    0.3789    0.0000 C   0  0
   -5.2913    1.5282    0.0000 C   0  0
   -4.7668   -2.5745    0.0000 C   0  0
   -0.8485   -0.6601    0.0000 C   0  0
   -1.2149    0.5876    0.0000 C   0  0
   -0.6714    0.0681    0.0000 C   0  0
   -2.8035    3.0086    0.0000 C   0  0
   -2.4506    3.6743    0.0000 N   0  0
   -3.5443    2.9002    0.0000 C   0  0
   -2.4683    2.3348    0.0000 C   0  0
   -3.6750    2.1591    0.0000 C   0  0
   -3.0074    1.8120    0.0000 N   0  0
 23 24  1  0
  1  2  1  0
  1  3  1  0
  1  4  1  0
  2  5  2  0
  2  6  1  0
  3  7  1  0
  3  8  2  0
  4  9  2  0
  4 10  1  0
  5 11  1  0
  6 12  1  0
 25 26  1  0
 25 27  1  0
 25 28  1  0
 27 29  1  0
 28 30  1  0
 29 30  1  0
 11 30  1  0
  7 13  2  0
  8 14  1  0
  9 15  1  0
 10 16  2  0
 11 17  2  0
 12 18  2  0
 12 19  1  0
 13 20  1  0
 15 21  2  0
 18 22  1  0
 19 23  2  0
 22 24  2  0
  5  7  1  0
 14 20  2  0
 16 21  1  0
M  END
>  <ID_NEW>
CPDRE1391

>  <pIC50>
4.213248577854439

$$$$

  SciTegic12180814012D

 32 36  0  0  0  0            999 V2000
   -2.7513    0.2895    0.0000 N   0  0
   -2.1694    0.6310    0.0000 C   0  0
   -3.3393    0.6283    0.0000 C   0  0
   -2.7478   -0.3888    0.0000 C   0  0
   -2.1686    1.3094    0.0000 C   0  0
   -1.5186    0.4582    0.0000 O   0  0
   -3.3470    1.3067    0.0000 C   0  0
   -3.9316    0.2784    0.0000 C   0  0
   -3.3324   -0.7317    0.0000 C   0  0
   -2.1556   -0.7213    0.0000 C   0  0
   -1.6935    1.7873    0.0000 C   0  0
   -1.3416   -0.1967    0.0000 C   0  0
   -3.9350    1.6378    0.0000 C   0  0
   -4.5162    0.6214    0.0000 C   0  0
   -3.3255   -1.4100    0.0000 C   0  0
   -2.1570   -1.4004    0.0000 C   0  0
   -1.0351    1.6179    0.0000 O   0  0
   -1.8203   -0.6718    0.0000 C   0  0
   -0.6902   -0.3695    0.0000 C   0  0
   -4.5162    1.3032    0.0000 C   0  0
   -2.7416   -1.7454    0.0000 C   0  0
   -1.6474   -1.3308    0.0000 C   0  0
   -0.5139   -1.0251    0.0000 C   0  0
   -0.9925   -1.5030    0.0000 C   0  0
   -1.8795    2.4451    0.0000 N   0  0
   -1.3960    2.9244    0.0000 C   0  0
   -1.5709    3.5750    0.0000 C   0  0
   -2.2269    3.7494    0.0000 N   0  0
   -2.7123    3.2708    0.0000 C   0  0
   -2.5332    2.6095    0.0000 C   0  0
   -0.7403    2.7503    0.0000 C   0  0
   -3.3641    3.4395    0.0000 C   0  0
  1  2  1  0
  1  3  1  0
  1  4  1  0
  2  5  2  0
  2  6  1  0
  3  7  1  0
  3  8  2  0
  4  9  2  0
  4 10  1  0
  5 11  1  0
  6 12  1  0
  7 13  2  0
  8 14  1  0
  9 15  1  0
 10 16  2  0
 11 17  2  0
 12 18  2  0
 12 19  1  0
 13 20  1  0
 15 21  2  0
 18 22  1  0
 19 23  2  0
 22 24  2  0
  5  7  1  0
 14 20  2  0
 16 21  1  0
 23 24  1  0
 11 25  1  0
 25 26  1  0
 25 30  1  0
 26 27  1  0
 27 28  1  0
 28 29  1  0
 29 30  1  0
 26 31  1  0
 29 32  1  0
M  END
>  <ID_NEW>
CPDRE1392

>  <pIC50>
4.1423660148499915

$$$$

  SciTegic12180813512D

 33 37  0  0  0  0            999 V2000
    5.5333   -2.2916    0.0000 N   0  0
    5.5292   -1.4666    0.0000 C   0  0
    4.8166   -1.0600    0.0000 C   0  0
    4.1036   -1.4738    0.0000 C   0  0
    4.1077   -2.2988    0.0000 C   0  0
    4.8249   -2.7100    0.0000 C   0  0
    4.8212   -4.8411    0.0000 N   0  0
    5.4926   -4.3922    0.0000 C   0  0
    4.0959   -4.4738    0.0000 C   0  0
    4.8682   -5.6556    0.0000 C   0  0
    5.4501   -3.5816    0.0000 C   0  0
    6.2908   -4.5561    0.0000 O   0  0
    4.0491   -3.6634    0.0000 C   0  0
    3.4099   -4.9234    0.0000 C   0  0
    4.1896   -6.0978    0.0000 C   0  0
    5.5930   -6.0124    0.0000 C   0  0
    5.9852   -2.9744    0.0000 C   0  0
    6.5384   -5.3281    0.0000 C   0  0
    3.3195   -3.2957    0.0000 C   0  0
    2.6879   -4.5559    0.0000 C   0  0
    4.2398   -6.9079    0.0000 C   0  0
    5.6430   -6.8191    0.0000 C   0  0
    6.7865   -3.1346    0.0000 O   0  0
    5.9952   -5.9288    0.0000 C   0  0
    7.3292   -5.4964    0.0000 C   0  0
    2.6445   -3.7420    0.0000 C   0  0
    4.9652   -7.2760    0.0000 C   0  0
    6.2431   -6.7007    0.0000 C   0  0
    7.5801   -6.2647    0.0000 C   0  0
    7.0374   -6.8723    0.0000 C   0  0
    4.0958   -0.6458    0.0000 N   0  0
    3.3000   -1.2542    0.0000 C   0  0
    2.8834   -0.5375    0.0000 O   0  0
  9 14  2  0
 10 15  2  0
 10 16  1  0
 11 17  1  0
 12 18  1  0
 13 19  2  0
 14 20  1  0
 15 21  1  0
 16 22  2  0
 17 23  2  0
 18 24  2  0
 18 25  1  0
 19 26  1  0
 21 27  2  0
 24 28  1  0
 25 29  2  0
 28 30  2  0
 11 13  1  0
 20 26  2  0
 22 27  1  0
 29 30  1  0
 17  1  1  0
  2  3  1  0
  3  4  1  0
  4  5  1  0
  5  6  1  0
  4 31  1  0
  1  2  1  0
  1  6  1  0
  7  8  1  0
  7  9  1  0
  7 10  1  0
  8 11  2  0
  8 12  1  0
  4 32  1  0
  9 13  1  0
 32 33  1  0
M  END
>  <ID_NEW>
CPDRE1393

>  <pIC50>
4.108462542327435

$$$$

  -MTS-   10172316392D 0   0.00000     0.00000     0

 31 35  0  0  1  0  0  0  0  0999 V2000
   -3.6930   -0.0010    0.0000 N   0  0  0  0  0  0  0  0  0  0  0  0
   -3.2520    0.6090    0.0000 C   0  0  0  0  0  0  0  0  0  0  0  0
   -4.4050    0.2290    0.0000 C   0  0  0  0  0  0  0  0  0  0  0  0
   -3.4580   -0.7120    0.0000 C   0  0  0  0  0  0  0  0  0  0  0  0
   -3.6990    1.2140    0.0000 C   0  0  0  0  0  0  0  0  0  0  0  0
   -2.5000    0.6140    0.0000 O   0  0  0  0  0  0  0  0  0  0  0  0
   -4.4110    0.9790    0.0000 C   0  0  0  0  0  0  0  0  0  0  0  0
   -5.0540   -0.1510    0.0000 C   0  0  0  0  0  0  0  0  0  0  0  0
   -2.7240   -0.8650    0.0000 C   0  0  0  0  0  0  0  0  0  0  0  0
   -3.9530   -1.2710    0.0000 C   0  0  0  0  0  0  0  0  0  0  0  0
   -3.4700    1.9290    0.0000 C   0  0  0  0  0  0  0  0  0  0  0  0
   -2.0160    0.0410    0.0000 C   0  0  0  0  0  0  0  0  0  0  0  0
   -5.0610    1.3490    0.0000 C   0  0  0  0  0  0  0  0  0  0  0  0
   -5.7060    0.2220    0.0000 C   0  0  0  0  0  0  0  0  0  0  0  0
   -2.4890   -1.5770    0.0000 C   0  0  0  0  0  0  0  0  0  0  0  0
   -3.7190   -1.9820    0.0000 C   0  0  0  0  0  0  0  0  0  0  0  0
   -3.9710    2.4860    0.0000 O   0  0  0  0  0  0  0  0  0  0  0  0
   -1.2830    0.1730    0.0000 C   0  0  0  0  0  0  0  0  0  0  0  0
   -2.2750   -0.6670    0.0000 C   0  0  0  0  0  0  0  0  0  0  0  0
   -5.7070    0.9720    0.0000 C   0  0  0  0  0  0  0  0  0  0  0  0
   -2.9880   -2.1380    0.0000 C   0  0  0  0  0  0  0  0  0  0  0  0
   -0.7970   -0.3980    0.0000 C   0  0  0  0  0  0  0  0  0  0  0  0
   -1.7880   -1.2370    0.0000 C   0  0  0  0  0  0  0  0  0  0  0  0
   -1.0480   -1.1050    0.0000 C   0  0  0  0  0  0  0  0  0  0  0  0
   -1.7770    2.9600    0.0000 C   0  0  2  0  0  0  0  0  0  0  0  0
   -1.5480    3.6740    0.0000 N   0  0  0  0  0  0  0  0  0  0  0  0
   -1.2700    2.4070    0.0000 C   0  0  0  0  0  0  0  0  0  0  0  0
   -2.5090    2.8020    0.0000 C   0  0  0  0  0  0  0  0  0  0  0  0
   -1.4990    1.6930    0.0000 C   0  0  0  0  0  0  0  0  0  0  0  0
   -2.7370    2.0880    0.0000 N   0  0  0  0  0  0  0  0  0  0  0  0
   -2.2340    1.5320    0.0000 C   0  0  0  0  0  0  0  0  0  0  0  0
  3  7  1  0  0  0  0
  3  8  2  0  0  0  0
  4  9  2  0  0  0  0
  4 10  1  0  0  0  0
  5 11  1  0  0  0  0
  6 12  1  0  0  0  0
  7 13  2  0  0  0  0
 25 26  1  6  0  0  0
 25 27  1  0  0  0  0
 25 28  1  0  0  0  0
 27 29  1  0  0  0  0
 28 30  1  0  0  0  0
 29 31  1  0  0  0  0
 30 31  1  0  0  0  0
 11 30  1  0  0  0  0
  8 14  1  0  0  0  0
  9 15  1  0  0  0  0
 10 16  2  0  0  0  0
 11 17  2  0  0  0  0
 12 18  2  0  0  0  0
 12 19  1  0  0  0  0
 13 20  1  0  0  0  0
 15 21  2  0  0  0  0
 18 22  1  0  0  0  0
 19 23  2  0  0  0  0
 22 24  2  0  0  0  0
  5  7  1  0  0  0  0
 14 20  2  0  0  0  0
 16 21  1  0  0  0  0
 23 24  1  0  0  0  0
  1  2  1  0  0  0  0
  1  3  1  0  0  0  0
  1  4  1  0  0  0  0
  2  5  2  0  0  0  0
  2  6  1  0  0  0  0
M  END
>  <ID_NEW>
CPDRE1394

>  <pIC50>
4.032452023781137

$$$$

  SciTegic12180813462D

 35 39  0  0  0  0            999 V2000
    5.2083   -3.6792    0.0000 N   0  0
    5.9208   -3.2625    0.0000 C   0  0
    5.9163   -2.4417    0.0000 C   0  0
    5.2008   -2.0313    0.0000 N   0  0
    4.4883   -2.4480    0.0000 C   0  0
    4.4913   -3.2750    0.0000 C   0  0
    4.0811   -7.0127    0.0000 C   0  0
    3.3654   -7.4192    0.0000 C   0  0
    3.3606   -8.2403    0.0000 C   0  0
    4.0707   -8.6560    0.0000 C   0  0
    4.7871   -8.2445    0.0000 C   0  0
    4.7884   -7.4247    0.0000 C   0  0
    5.9586   -6.6341    0.0000 C   0  0
    5.5419   -7.3445    0.0000 C   0  0
    5.9486   -8.0584    0.0000 C   0  0
    6.7720   -8.0633    0.0000 C   0  0
    7.1869   -7.3482    0.0000 C   0  0
    6.7777   -6.6371    0.0000 C   0  0
    3.4151   -5.7078    0.0000 C   0  0
    3.6282   -4.9098    0.0000 C   0  0
    3.0444   -4.3283    0.0000 C   0  0
    2.2472   -4.5435    0.0000 C   0  0
    2.0371   -5.3455    0.0000 C   0  0
    2.6225   -5.9236    0.0000 N   0  0
    4.0875   -6.1916    0.0000 N   0  0
    4.7568   -5.7092    0.0000 C   0  0
    4.5000   -4.9209    0.0000 C   0  0
    5.5500   -5.9208    0.0000 O   0  0
    5.2125   -4.5042    0.0000 C   0  0
    5.9250   -4.9167    0.0000 O   0  0
    7.1833   -5.9167    0.0000 C   0  0
    7.1792   -5.0917    0.0000 F   0  0
    7.8958   -5.5000    0.0000 F   0  0
    7.8958   -6.3292    0.0000 F   0  0
    5.5292   -8.7708    0.0000 F   0  0
 17 18  2  0
 18 13  1  0
  2  3  1  0
  9 10  2  0
 19 20  2  0
  3  4  1  0
 20 21  1  0
 10 11  1  0
 21 22  2  0
  4  5  1  0
 22 23  1  0
 11 12  2  0
 23 24  2  0
 24 19  1  0
 12  7  1  0
  5  6  1  0
 26 27  2  0
 25 26  1  0
 27 20  1  0
 19 25  1  0
 25  7  1  0
 13 14  2  0
 26 28  1  0
 28 13  1  0
  1  2  1  0
 27 29  1  0
 14 15  1  0
 29 30  2  0
 29  1  1  0
  7  8  2  0
 18 31  1  0
 15 16  2  0
 31 32  1  0
  1  6  1  0
 31 33  1  0
 16 17  1  0
 31 34  1  0
  8  9  1  0
 15 35  1  0
M  END
>  <ID_NEW>
CPDRE1395

>  <pIC50>
4.0

$$$$

  SciTegic12180813512D

 31 35  0  0  0  0            999 V2000
   -5.8306    1.6417    0.0000 C   0  0
   -5.8318    0.8143    0.0000 C   0  0
   -5.1169    0.4015    0.0000 C   0  0
   -5.1187    2.0545    0.0000 C   0  0
   -3.6030    0.5607    0.0000 N   0  0
   -3.1182    1.2382    0.0000 C   0  0
   -3.6129    1.9086    0.0000 C   0  0
   -4.4034    1.6453    0.0000 C   0  0
   -4.3973    0.8122    0.0000 C   0  0
   -3.3423   -0.2221    0.0000 C   0  0
   -3.8913   -0.8377    0.0000 C   0  0
   -3.6312   -1.6198    0.0000 C   0  0
   -2.8222   -1.7860    0.0000 C   0  0
   -2.2738   -1.1638    0.0000 C   0  0
   -2.5369   -0.3842    0.0000 C   0  0
   -3.3638    2.6951    0.0000 C   0  0
   -2.5581    2.8726    0.0000 N   0  0
   -3.9203    3.3041    0.0000 O   0  0
   -2.0013    2.2600    0.0000 C   0  0
   -1.1987    2.4348    0.0000 C   0  0
   -0.9454    3.2203    0.0000 C   0  0
   -1.5011    3.8313    0.0000 C   0  0
   -2.3101    3.6568    0.0000 C   0  0
   -0.1390    3.3947    0.0000 O   0  0
   -2.2932    1.2442    0.0000 O   0  0
   -1.8755    0.5328    0.0000 C   0  0
   -2.2850   -0.1840    0.0000 C   0  0
   -1.8680   -0.8950    0.0000 C   0  0
   -1.0421   -0.8894    0.0000 C   0  0
   -0.6351   -0.1669    0.0000 C   0  0
   -1.0544    0.5411    0.0000 C   0  0
  1  2  2  0
  2  3  1  0
  3  9  2  0
  8  4  2  0
  4  1  1  0
  8  9  1  0
  6  7  2  0
  5  6  1  0
  7  8  1  0
  9  5  1  0
  5 10  1  0
 10 11  2  0
 11 12  1  0
 12 13  2  0
 13 14  1  0
 14 15  2  0
 15 10  1  0
  7 16  1  0
 16 17  1  0
 16 18  2  0
 17 19  1  0
 17 23  1  0
 19 20  1  0
 20 21  1  0
 21 22  1  0
 22 23  1  0
 21 24  1  0
  6 25  1  0
 25 26  1  0
 26 27  2  0
 27 28  1  0
 28 29  2  0
 29 30  1  0
 30 31  2  0
 31 26  1  0
M  END
>  <ID_NEW>
CPDRE1396

>  <pIC50>
4.0

$$$$
